! wB97X-3c OPT FREQ TightSCF
%pal
  nprocs 40
end
* xyz 0 1
C     -5.211328    -0.190458     0.642062
C     -4.412702    -0.274707    -0.658641
C     -2.962548    -0.734003    -0.439748
C     -2.095949     0.349202     0.226122
C     -0.639653    -0.101491     0.428705
C      0.178700    -0.058351    -0.873716
C      1.626636    -0.534980    -0.675989
C      2.484437     0.472042     0.093101
O      3.837537     0.028350     0.102610
C      4.860596     0.743128     0.731798
O      4.621822     1.840944     1.304740
C      6.257583     0.224888     0.681844
H     -5.158302    -1.152534     1.194626
H     -6.275511     0.022712     0.407422
H     -4.831035     0.628581     1.286473
H     -4.429231     0.711591    -1.171366
H     -4.915468    -1.007772    -1.326282
H     -2.950874    -1.661196     0.174223
H     -2.539146    -0.984712    -1.434443
H     -2.516121     0.582157     1.227269
H     -2.122133     1.284012    -0.375768
H     -0.177453     0.585680     1.168339
H     -0.617644    -1.125847     0.861151
H      0.175816     0.972584    -1.290730
H     -0.291101    -0.725527    -1.625851
H      2.082011    -0.687411    -1.678984
H      1.637299    -1.514924    -0.150621
H      2.124772     0.559241     1.140181
H      2.427590     1.467972    -0.398451
H      6.249223    -0.872856     0.516413
H      6.804058     0.714588    -0.150680
H      6.778120     0.439095     1.639066
*
