32
Coordinates from ORCA-job ./output/octyl_acetate/octyl_acetate E -101.202573425797
  C          -5.12556463105094     -0.23071744277214      0.65533779339414
  C          -4.35529881071637     -0.28255874616662     -0.65153100026122
  C          -2.89129052683251     -0.66986824550675     -0.50034715797453
  C          -2.05532444499649      0.34874399592261      0.25583777293289
  C          -0.59251860938127     -0.03844279250634      0.42251925656448
  C           0.19909301385342     -0.05563788941584     -0.87533369758654
  C           1.64909850861400     -0.48706928153154     -0.71894462006309
  C           2.46897717153898      0.47910722437142      0.09648015571826
  O           3.82362194518432      0.02141421561482      0.08321021145277
  C           4.70421230073257      0.74868518826875      0.77415669984766
  O           4.40655605549109      1.74127881545935      1.38162351425086
  C           6.08024727296479      0.16960095608644      0.69049411443091
  H          -5.05968654791748     -1.18248024717527      1.18459827378430
  H          -6.18060662152616     -0.02323547822252      0.47929051107879
  H          -4.74950406445084      0.54467805929888      1.32121706404730
  H          -4.42027669086520      0.68672190222974     -1.15328051300965
  H          -4.83837175665872     -0.99941436952029     -1.31869853405903
  H          -2.82582786409452     -1.63655810568849      0.00932007390321
  H          -2.47196419345556     -0.82257899795288     -1.49620350866114
  H          -2.48313104006424      0.50228372429291      1.24774872035562
  H          -2.11704719988639      1.31566033800748     -0.25351803535224
  H          -0.13100543579193      0.66091091323701      1.12194455786573
  H          -0.53129971443140     -1.02421334240497      0.89427230371537
  H           0.16104242698828      0.93736267018376     -1.33354562173184
  H          -0.27615348729583     -0.73282145119970     -1.58546111555557
  H           2.10989158834519     -0.58055275085347     -1.70336398973077
  H           1.69669478100930     -1.47516864600400     -0.25642072435573
  H           2.13589961065024      0.54027354166206      1.13038302586553
  H           2.43391219247891      1.48536078435715     -0.32190751886998
  H           6.07792898205416     -0.83806097259852      1.09952566979011
  H           6.38835916968427      0.10156848170187     -0.35004727174774
  H           6.76933761982631      0.79572594882508      1.24551858996115
