32
Coordinates from ORCA-job ./output/octyl_acetate/octyl_acetate E -101.179766790281
  C      -5.211328     -0.190458      0.642062
  C      -4.412702     -0.274707     -0.658641
  C      -2.962548     -0.734003     -0.439748
  C      -2.095949      0.349202      0.226122
  C      -0.639653     -0.101491      0.428705
  C       0.178700     -0.058351     -0.873716
  C       1.626636     -0.534980     -0.675989
  C       2.484437      0.472042      0.093101
  O       3.837537      0.028350      0.102610
  C       4.860596      0.743128      0.731798
  O       4.621822      1.840944      1.304740
  C       6.257583      0.224888      0.681844
  H      -5.158302     -1.152534      1.194626
  H      -6.275511      0.022712      0.407422
  H      -4.831035      0.628581      1.286473
  H      -4.429231      0.711591     -1.171366
  H      -4.915468     -1.007772     -1.326282
  H      -2.950874     -1.661196      0.174223
  H      -2.539146     -0.984712     -1.434443
  H      -2.516121      0.582157      1.227269
  H      -2.122133      1.284012     -0.375768
  H      -0.177453      0.585680      1.168339
  H      -0.617644     -1.125847      0.861151
  H       0.175816      0.972584     -1.290730
  H      -0.291101     -0.725527     -1.625851
  H       2.082011     -0.687411     -1.678984
  H       1.637299     -1.514924     -0.150621
  H       2.124772      0.559241      1.140181
  H       2.427590      1.467972     -0.398451
  H       6.249223     -0.872856      0.516413
  H       6.804058      0.714588     -0.150680
  H       6.778120      0.439095      1.639066
32
Coordinates from ORCA-job ./output/octyl_acetate/octyl_acetate E -101.200063040207
  C      -5.179997     -0.187433      0.637389
  C      -4.373032     -0.278368     -0.651601
  C      -2.926086     -0.717630     -0.436420
  C      -2.065180      0.346828      0.235134
  C      -0.611411     -0.084807      0.431796
  C       0.206066     -0.058631     -0.856206
  C       1.646448     -0.530212     -0.675131
  C       2.490213      0.465272      0.089579
  O       3.828930      0.001506      0.086854
  C       4.756470      0.739570      0.713973
  O       4.471365      1.779276      1.270101
  C       6.144331      0.214852      0.670213
  H      -5.128451     -1.126881      1.190187
  H      -6.228025      0.016364      0.411322
  H      -4.816804      0.617145      1.277144
  H      -4.390782      0.688587     -1.161811
  H      -4.861044     -0.997834     -1.315277
  H      -2.909786     -1.631852      0.164330
  H      -2.499797     -0.965799     -1.412210
  H      -2.485076      0.576483      1.217657
  H      -2.097438      1.269074     -0.352295
  H      -0.153769      0.590835      1.159239
  H      -0.583629     -1.088827      0.864888
  H       0.200710      0.954091     -1.269970
  H      -0.263993     -0.708027     -1.597355
  H       2.098196     -0.679376     -1.659281
  H       1.662885     -1.494924     -0.162258
  H       2.149306      0.560222      1.121131
  H       2.447762      1.447399     -0.386226
  H       6.152485     -0.861042      0.498182
  H       6.682001      0.705844     -0.138938
  H       6.637134      0.438293      1.610734
32
Coordinates from ORCA-job ./output/octyl_acetate/octyl_acetate E -101.201888086895
  C      -5.158218     -0.186458      0.633230
  C      -4.356411     -0.294480     -0.654483
  C      -2.906309     -0.710132     -0.444538
  C      -2.059640      0.348256      0.243658
  C      -0.602852     -0.058758      0.435712
  C       0.206606     -0.061415     -0.852058
  C       1.647264     -0.523226     -0.679846
  C       2.485320      0.464562      0.092633
  O       3.826260     -0.010942      0.100448
  C       4.715498      0.736184      0.741616
  O       4.427405      1.763638      1.291536
  C       6.103083      0.197930      0.660248
  H      -5.107364     -1.116569      1.198105
  H      -6.205855      0.017188      0.418369
  H      -4.792484      0.617616      1.268697
  H      -4.383792      0.661829     -1.180493
  H      -4.838830     -1.021747     -1.308986
  H      -2.878062     -1.629560      0.145291
  H      -2.471276     -0.947523     -1.416415
  H      -2.487224      0.569362      1.222116
  H      -2.103147      1.275317     -0.332896
  H      -0.144627      0.627386      1.149158
  H      -0.562671     -1.051207      0.890650
  H       0.194680      0.941986     -1.283919
  H      -0.271133     -0.715898     -1.580817
  H       2.102202     -0.667365     -1.659803
  H       1.669768     -1.490178     -0.175918
  H       2.145271      0.569194      1.120039
  H       2.458403      1.447894     -0.374546
  H       6.109180     -0.870662      0.472319
  H       6.622844      0.698103     -0.152975
  H       6.616110      0.419675      1.588743
32
Coordinates from ORCA-job ./output/octyl_acetate/octyl_acetate E -101.202010063816
  C      -5.139442     -0.191185      0.648423
  C      -4.353087     -0.314866     -0.645300
  C      -2.896487     -0.708998     -0.450028
  C      -2.058397      0.350538      0.245186
  C      -0.596102     -0.033952      0.425838
  C       0.199832     -0.059826     -0.868868
  C       1.644620     -0.506721     -0.706290
  C       2.477531      0.480347      0.070284
  O       3.824367      0.004155      0.082800
  C       4.708663      0.755432      0.733505
  O       4.416933      1.756481      1.328192
  C       6.084125      0.169267      0.687579
  H      -5.083019     -1.114220      1.225822
  H      -6.190556      0.011060      0.448354
  H      -4.766237      0.617159      1.274689
  H      -4.397231      0.631620     -1.189465
  H      -4.835658     -1.055968     -1.284399
  H      -2.850438     -1.635302      0.129954
  H      -2.463166     -0.934689     -1.425342
  H      -2.485290      0.562016      1.226144
  H      -2.117907      1.283921     -0.321971
  H      -0.135837      0.668217      1.122443
  H      -0.539178     -1.016293      0.903311
  H       0.175173      0.934879     -1.322424
  H      -0.282805     -0.728444     -1.581532
  H       2.099338     -0.643256     -1.687725
  H       1.679072     -1.477509     -0.208836
  H       2.138913      0.589131      1.097722
  H       2.455844      1.466434     -0.392184
  H       6.063708     -0.896967      0.490892
  H       6.638554      0.659614     -0.109464
  H       6.584165      0.377923      1.627566
32
Coordinates from ORCA-job ./output/octyl_acetate/octyl_acetate E -101.202281965334
  C      -5.134275     -0.185369      0.644940
  C      -4.353774     -0.319234     -0.649863
  C      -2.894632     -0.705103     -0.460321
  C      -2.060910      0.349782      0.247752
  C      -0.597101     -0.025871      0.426889
  C       0.196752     -0.067247     -0.868769
  C       1.642530     -0.507825     -0.704589
  C       2.469718      0.473228      0.084655
  O       3.819303     -0.006572      0.105947
  C       4.704503      0.740215      0.772537
  O       4.422070      1.761723      1.339842
  C       6.088146      0.170790      0.678527
  H      -5.080227     -1.105560      1.228946
  H      -6.186363      0.020772      0.450441
  H      -4.755371      0.623245      1.268436
  H      -4.404914      0.621519     -1.205287
  H      -4.836561     -1.067745     -1.281350
  H      -2.841522     -1.639724      0.107846
  H      -2.460680     -0.919269     -1.438270
  H      -2.490410      0.551304      1.230131
  H      -2.125468      1.290926     -0.308352
  H      -0.137181      0.685386      1.115253
  H      -0.534119     -1.002181      0.918640
  H       0.167984      0.921758     -1.337064
  H      -0.285706     -0.744954     -1.573407
  H       2.102862     -0.635060     -1.685497
  H       1.680307     -1.483863     -0.215637
  H       2.126406      0.579773      1.111366
  H       2.456638      1.464027     -0.370182
  H       6.072486     -0.895945      0.483488
  H       6.607176      0.666674     -0.140147
  H       6.622335      0.390400      1.597975
32
Coordinates from ORCA-job ./output/octyl_acetate/octyl_acetate E -101.202349202369
  C      -5.136362     -0.183542      0.647624
  C      -4.355828     -0.314109     -0.647922
  C      -2.897035     -0.704567     -0.459809
  C      -2.059598      0.349715      0.245427
  C      -0.596614     -0.031397      0.425074
  C       0.198412     -0.069603     -0.870544
  C       1.644455     -0.510816     -0.704486
  C       2.471925      0.470738      0.084294
  O       3.820547     -0.005663      0.099118
  C       4.705460      0.739411      0.764452
  O       4.415011      1.754365      1.337413
  C       6.090083      0.177722      0.681358
  H      -5.081783     -1.104871      1.229574
  H      -6.188377      0.021970      0.451893
  H      -4.758305      0.625145      1.271539
  H      -4.406275      0.627863     -1.200975
  H      -4.839948     -1.061281     -1.280128
  H      -2.845273     -1.639322      0.107801
  H      -2.466878     -0.919006     -1.439562
  H      -2.486624      0.551622      1.228928
  H      -2.121797      1.290589     -0.310858
  H      -0.136694      0.679019      1.114355
  H      -0.536001     -1.008878      0.914177
  H       0.169861      0.919498     -1.338047
  H      -0.281842     -0.748709     -1.575485
  H       2.104281     -0.636877     -1.685801
  H       1.682302     -1.486507     -0.215198
  H       2.131102      0.572033      1.112562
  H       2.454444      1.462312     -0.368946
  H       6.078039     -0.890310      0.490783
  H       6.611217      0.672177     -0.136669
  H       6.618096      0.401274      1.602935
32
Coordinates from ORCA-job ./output/octyl_acetate/octyl_acetate E -101.202365904159
  C      -5.134164     -0.182531      0.649079
  C      -4.355726     -0.313332     -0.647483
  C      -2.896032     -0.702014     -0.462827
  C      -2.059003      0.350637      0.244800
  C      -0.595906     -0.029749      0.424148
  C       0.198137     -0.073333     -0.871807
  C       1.644807     -0.511998     -0.704745
  C       2.470700      0.468898      0.086353
  O       3.820120     -0.004877      0.097267
  C       4.703890      0.738443      0.765826
  O       4.410088      1.748465      1.345762
  C       6.088828      0.179707      0.681199
  H      -5.078359     -1.103216      1.231823
  H      -6.186573      0.022055      0.454763
  H      -4.756062      0.626788      1.272077
  H      -4.409209      0.627307     -1.202342
  H      -4.839828     -1.062341     -1.277544
  H      -2.841615     -1.639336      0.100126
  H      -2.468152     -0.911955     -1.444572
  H      -2.485520      0.549182      1.229220
  H      -2.121990      1.293338     -0.308082
  H      -0.136114      0.684480      1.109519
  H      -0.534145     -1.004815      0.917666
  H       0.167704      0.912804     -1.345137
  H      -0.281070     -0.757518     -1.572546
  H       2.105384     -0.634906     -1.686053
  H       1.684472     -1.488403     -0.217231
  H       2.131757      0.565672      1.115565
  H       2.450855      1.462158     -0.362913
  H       6.076821     -0.889108      0.495014
  H       6.605556      0.671225     -0.141324
  H       6.620351      0.408270      1.599273
32
Coordinates from ORCA-job ./output/octyl_acetate/octyl_acetate E -101.202385703500
  C      -5.130452     -0.180779      0.650519
  C      -4.355699     -0.310415     -0.648027
  C      -2.894264     -0.695728     -0.470167
  C      -2.058140      0.352797      0.243602
  C      -0.594942     -0.026640      0.423353
  C       0.197817     -0.082348     -0.872716
  C       1.645559     -0.516090     -0.702894
  C       2.467754      0.463514      0.093612
  O       3.819607     -0.003394      0.095979
  C       4.701017      0.736050      0.771907
  O       4.401990      1.736779      1.365437
  C       6.087659      0.185513      0.677162
  H      -5.071851     -1.100882      1.233833
  H      -6.183725      0.021693      0.458897
  H      -4.752787      0.629345      1.272666
  H      -4.414694      0.628630     -1.204846
  H      -4.839629     -1.061973     -1.275269
  H      -2.835076     -1.638561      0.082928
  H      -2.470483     -0.895921     -1.455738
  H      -2.484563      0.544520      1.229448
  H      -2.121685      1.299321     -0.302434
  H      -0.135223      0.695189      1.100763
  H      -0.531824     -0.996773      0.926106
  H       0.164308      0.897690     -1.358105
  H      -0.279297     -0.776706     -1.564818
  H       2.108362     -0.632815     -1.683872
  H       1.688204     -1.493978     -0.218817
  H       2.132475      0.549985      1.124834
  H       2.441638      1.460571     -0.346773
  H       6.077350     -0.885709      0.505011
  H       6.589073      0.667545     -0.160333
  H       6.631521      0.429569      1.583627
32
Coordinates from ORCA-job ./output/octyl_acetate/octyl_acetate E -101.202397971996
  C      -5.128279     -0.180927      0.651220
  C      -4.355715     -0.306688     -0.648931
  C      -2.893316     -0.690600     -0.475744
  C      -2.057440      0.354590      0.242641
  C      -0.594457     -0.025369      0.423200
  C       0.197890     -0.088829     -0.872637
  C       1.646093     -0.520049     -0.700713
  C       2.465709      0.459089      0.099158
  O       3.819549     -0.002053      0.095645
  C       4.699030      0.735102      0.776566
  O       4.397119      1.729832      1.378907
  C       6.087309      0.190455      0.673494
  H      -5.067104     -1.101931      1.232830
  H      -6.182234      0.019842      0.461591
  H      -4.751368      0.628779      1.274353
  H      -4.417484      0.633176     -1.204028
  H      -4.839700     -1.057871     -1.276602
  H      -2.831762     -1.637024      0.070941
  H      -2.471933     -0.884175     -1.463667
  H      -2.484363      0.542313      1.229062
  H      -2.120158      1.303421     -0.299416
  H      -0.134297      0.700369      1.096131
  H      -0.531718     -0.992814      0.931086
  H       0.163261      0.887697     -1.364915
  H      -0.278197     -0.788867     -1.559700
  H       2.110620     -0.633565     -1.681225
  H       1.689825     -1.498669     -0.218267
  H       2.132692      0.538434      1.131640
  H       2.434276      1.458511     -0.335543
  H       6.079326     -0.883581      0.519248
  H       6.574817      0.659166     -0.179672
  H       6.642012      0.452234      1.568221
32
Coordinates from ORCA-job ./output/octyl_acetate/octyl_acetate E -101.202425268461
  C      -5.124536     -0.184618      0.652416
  C      -4.355837     -0.296206     -0.651378
  C      -2.891813     -0.678708     -0.487941
  C      -2.055860      0.358935      0.240464
  C      -0.593873     -0.024087      0.423483
  C       0.198506     -0.101410     -0.871432
  C       1.647226     -0.529130     -0.695068
  C       2.462008      0.449749      0.110478
  O       3.819936      0.001155      0.095328
  C       4.695377      0.734061      0.785923
  O       4.388276      1.716772      1.405407
  C       6.087103      0.201342      0.665508
  H      -5.057120     -1.110025      1.226290
  H      -6.179991      0.012436      0.467248
  H      -4.749912      0.622013      1.280864
  H      -4.421794      0.648719     -1.197333
  H      -4.840110     -1.042773     -1.284301
  H      -2.826668     -1.632228      0.045964
  H      -2.474682     -0.858629     -1.480225
  H      -2.484667      0.539544      1.227413
  H      -2.115071      1.312022     -0.294442
  H      -0.132205      0.707105      1.089439
  H      -0.533949     -0.987448      0.939395
  H       0.163165      0.869346     -1.374978
  H      -0.276177     -0.810465     -1.550155
  H       2.115299     -0.638108     -1.674359
  H       1.691679     -1.508701     -0.214641
  H       2.133418      0.515413      1.145286
  H       2.418984      1.453201     -0.314031
  H       6.086261     -0.879511      0.567235
  H       6.539558      0.625424     -0.229382
  H       6.667473      0.514805      1.526400
32
Coordinates from ORCA-job ./output/octyl_acetate/octyl_acetate E -101.202456637930
  C      -5.121827     -0.193358      0.653156
  C      -4.355810     -0.283624     -0.654106
  C      -2.890695     -0.666292     -0.499783
  C      -2.054262      0.363474      0.238971
  C      -0.593754     -0.024337      0.424622
  C       0.199372     -0.110402     -0.869245
  C       1.648095     -0.536851     -0.689362
  C       2.459482      0.442545      0.119457
  O       3.820782      0.005048      0.094741
  C       4.692877      0.734728      0.792950
  O       4.382105      1.707771      1.425722
  C       6.086956      0.210253      0.659044
  H      -5.047965     -1.126171      1.214100
  H      -6.178694      0.000500      0.472647
  H      -4.749994      0.606981      1.291220
  H      -4.424045      0.669914     -1.184658
  H      -4.840302     -1.021102     -1.297356
  H      -2.823440     -1.626247      0.022343
  H      -2.476369     -0.833075     -1.495494
  H      -2.485718      0.538189      1.225819
  H      -2.108733      1.320269     -0.289810
  H      -0.130084      0.708307      1.087578
  H      -0.538249     -0.986056      0.944145
  H       0.164842      0.857260     -1.378889
  H      -0.274933     -0.824041     -1.543373
  H       2.118914     -0.644118     -1.667492
  H       1.691776     -1.516728     -0.209416
  H       2.134681      0.497948      1.156050
  H       2.406191      1.448511     -0.298177
  H       6.095216     -0.875268      0.643268
  H       6.498802      0.562963     -0.285101
  H       6.694786      0.593006      1.471300
32
Coordinates from ORCA-job ./output/octyl_acetate/octyl_acetate E -101.202494730529
  C      -5.120676     -0.207655      0.654261
  C      -4.355935     -0.271407     -0.655662
  C      -2.890531     -0.656282     -0.508756
  C      -2.052931      0.366539      0.238832
  C      -0.594025     -0.026970      0.425649
  C       0.200422     -0.111162     -0.867660
  C       1.648742     -0.538901     -0.686892
  C       2.459202      0.441609      0.121807
  O       3.822159      0.009965      0.092948
  C       4.692562      0.738415      0.794810
  O       4.380688      1.708015      1.432009
  C       6.086402      0.212616      0.658556
  H      -5.041890     -1.150442      1.197591
  H      -6.178538     -0.014783      0.478493
  H      -4.750841      0.582647      1.305863
  H      -4.423967      0.693308     -1.165753
  H      -4.840835     -0.995621     -1.313393
  H      -2.822958     -1.620985      0.004635
  H      -2.477024     -0.812690     -1.506428
  H      -2.486910      0.537346      1.225231
  H      -2.102804      1.326066     -0.285524
  H      -0.128315      0.700980      1.092328
  H      -0.543367     -0.991201      0.941147
  H       0.167715      0.858188     -1.374427
  H      -0.274549     -0.822274     -1.543932
  H       2.120471     -0.647591     -1.664424
  H       1.690625     -1.518529     -0.206149
  H       2.136005      0.493697      1.159103
  H       2.400483      1.447786     -0.294809
  H       6.102368     -0.869210      0.754120
  H       6.457927      0.461408     -0.334036
  H       6.720325      0.677117      1.405336
32
Coordinates from ORCA-job ./output/octyl_acetate/octyl_acetate E -101.202529331780
  C      -5.122132     -0.221151      0.655668
  C      -4.356490     -0.267094     -0.654691
  C      -2.891852     -0.655438     -0.509568
  C      -2.052886      0.365069      0.240784
  C      -0.594610     -0.031446      0.425437
  C       0.201153     -0.099536     -0.868261
  C       1.649038     -0.530406     -0.691135
  C       2.462265      0.450429      0.114230
  O       3.823747      0.014111      0.089909
  C       4.695665      0.743877      0.789004
  O       4.386415      1.719700      1.417469
  C       6.085568      0.204007      0.667056
  H      -5.043929     -1.171770      1.185291
  H      -6.179825     -0.024873      0.482614
  H      -4.751412      0.559505      1.318335
  H      -4.421836      0.705484     -1.150069
  H      -4.841846     -0.980620     -1.323600
  H      -2.825873     -1.620816      0.002757
  H      -2.476617     -0.809820     -1.506786
  H      -2.487402      0.535257      1.227036
  H      -2.101686      1.325340     -0.282423
  H      -0.128491      0.686302      1.102796
  H      -0.545756     -1.002346      0.928590
  H       0.169711      0.876834     -1.361622
  H      -0.274830     -0.800270     -1.554550
  H       2.118587     -0.642071     -1.669427
  H       1.689662     -1.509865     -0.209810
  H       2.137100      0.509005      1.150628
  H       2.407725      1.454384     -0.308254
  H       6.098727     -0.864992      0.861412
  H       6.436162      0.355221     -0.352120
  H       6.735950      0.727989      1.358174
32
Coordinates from ORCA-job ./output/octyl_acetate/octyl_acetate E -101.202553033966
  C      -5.124371     -0.229613      0.657003
  C      -4.357033     -0.269842     -0.652448
  C      -2.893240     -0.660421     -0.505863
  C      -2.053564      0.360343      0.244158
  C      -0.594730     -0.035510      0.423948
  C       0.201335     -0.082752     -0.870653
  C       1.649354     -0.515528     -0.699790
  C       2.466388      0.463463      0.103449
  O       3.824700      0.016935      0.087109
  C       4.699762      0.747398      0.781978
  O       4.394359      1.731716      1.398649
  C       6.084038      0.190493      0.678785
  H      -5.051085     -1.184195      1.180174
  H      -6.181053     -0.027245      0.484807
  H      -4.750617      0.544432      1.325732
  H      -4.420262      0.705247     -1.143126
  H      -4.842455     -0.979043     -1.325918
  H      -2.828474     -1.624925      0.008126
  H      -2.475962     -0.816536     -1.501965
  H      -2.486575      0.529435      1.231272
  H      -2.105056      1.321217     -0.277724
  H      -0.129750      0.672218      1.112563
  H      -0.543782     -1.013329      0.913333
  H       0.168960      0.901243     -1.348553
  H      -0.274811     -0.772164     -1.568231
  H       2.115330     -0.627145     -1.679858
  H       1.690915     -1.495998     -0.220576
  H       2.137829      0.530689      1.138304
  H       2.421199      1.465290     -0.324935
  H       6.087827     -0.861714      0.951366
  H       6.423998      0.262383     -0.352240
  H       6.746826      0.753456      1.325998
32
Coordinates from ORCA-job ./output/octyl_acetate/octyl_acetate E -101.202566213321
  C      -5.125227     -0.236106      0.658228
  C      -4.356954     -0.274081     -0.650456
  C      -2.893188     -0.664189     -0.503581
  C      -2.054085      0.355630      0.248434
  C      -0.593988     -0.037549      0.422203
  C       0.200859     -0.067548     -0.873623
  C       1.649641     -0.500033     -0.709389
  C       2.469235      0.475344      0.095157
  O       3.824761      0.020007      0.084517
  C       4.702732      0.749220      0.777280
  O       4.401104      1.739930      1.385523
  C       6.081298      0.177134      0.689085
  H      -5.056660     -1.192991      1.177820
  H      -6.180977     -0.028469      0.486643
  H      -4.748745      0.533222      1.330885
  H      -4.420714      0.701206     -1.140615
  H      -4.841711     -0.982530     -1.325264
  H      -2.827606     -1.629590      0.008486
  H      -2.475163     -0.818678     -1.499672
  H      -2.484923      0.519563      1.237390
  H      -2.109855      1.318808     -0.268697
  H      -0.130394      0.663466      1.118617
  H      -0.538980     -1.020358      0.900955
  H       0.165770      0.921805     -1.340021
  H      -0.274784     -0.749258     -1.579140
  H       2.112442     -0.607349     -1.691476
  H       1.693915     -1.482688     -0.234975
  H       2.137866      0.546849      1.128860
  H       2.432186      1.476799     -0.334646
  H       6.078084     -0.851384      1.041649
  H       6.404513      0.166061     -0.349416
  H       6.759550      0.777754      1.284117
32
Coordinates from ORCA-job ./output/octyl_acetate/octyl_acetate E -101.202570912420
  C      -5.125389     -0.237600      0.658332
  C      -4.356371     -0.278222     -0.649634
  C      -2.892344     -0.666741     -0.501942
  C      -2.054529      0.352226      0.252270
  C      -0.593093     -0.038035      0.421516
  C       0.199926     -0.058841     -0.875487
  C       1.649485     -0.490414     -0.716020
  C       2.470201      0.481529      0.091444
  O       3.824295      0.021839      0.082683
  C       4.704259      0.749946      0.774056
  O       4.405618      1.744417      1.377851
  C       6.079478      0.169117      0.694453
  H      -5.059706     -1.194177      1.178851
  H      -6.180522     -0.027576      0.485906
  H      -4.747765      0.531174      1.331000
  H      -4.421337      0.695340     -1.142999
  H      -4.840199     -0.989034     -1.322681
  H      -2.825886     -1.633186      0.007980
  H      -2.474066     -0.819367     -1.498265
  H      -2.483535      0.510758      1.242909
  H      -2.113844      1.317521     -0.260431
  H      -0.130462      0.660599      1.120976
  H      -0.534493     -1.023161      0.894946
  H       0.162520      0.933019     -1.336231
  H      -0.275359     -0.737270     -1.584440
  H       2.110305     -0.592508     -1.699592
  H       1.696161     -1.475115     -0.246189
  H       2.137227      0.552675      1.124686
  H       2.437074      1.483904     -0.336367
  H       6.072247     -0.843879      1.089822
  H       6.393831      0.113349     -0.345080
  H       6.766276      0.787710      1.260552
32
Coordinates from ORCA-job ./output/octyl_acetate/octyl_acetate E -101.202572575540
  C      -5.125396     -0.235141      0.657303
  C      -4.355833     -0.280374     -0.650150
  C      -2.891679     -0.667927     -0.501268
  C      -2.054808      0.350531      0.254324
  C      -0.592632     -0.038134      0.421852
  C       0.199366     -0.057032     -0.875738
  C       1.649305     -0.488030     -0.718047
  C       2.469806      0.481588      0.092529
  O       3.823875      0.021938      0.082609
  C       4.704279      0.749463      0.773780
  O       4.406374      1.743627      1.378556
  C       6.079399      0.168281      0.693819
  H      -5.060500     -1.190008      1.181056
  H      -6.180318     -0.025258      0.483397
  H      -4.747962      0.535730      1.327671
  H      -4.421306      0.691189     -1.147382
  H      -4.839150     -0.994040     -1.320571
  H      -2.825202     -1.634908      0.007666
  H      -2.473219     -0.819780     -1.497638
  H      -2.483009      0.505977      1.245791
  H      -2.115579      1.316941     -0.256078
  H      -0.130461      0.660886      1.121210
  H      -0.532436     -1.023571      0.894400
  H       0.161083      0.935221     -1.335531
  H      -0.275730     -0.735257     -1.584996
  H       2.109767     -0.586241     -1.702175
  H       1.696981     -1.474123     -0.251270
  H       2.136480      0.549358      1.125911
  H       2.436565      1.485442     -0.331748
  H       6.073141     -0.841029      1.098641
  H       6.390758      0.103518     -0.346013
  H       6.768042      0.791161      1.252962
32
Coordinates from ORCA-job ./output/octyl_acetate/octyl_acetate E -101.202573209693
  C      -5.125415     -0.232526      0.656193
  C      -4.355492     -0.281769     -0.650928
  C      -2.891352     -0.668949     -0.500850
  C      -2.055122      0.349353      0.255492
  C      -0.592482     -0.038287      0.422277
  C       0.199116     -0.056255     -0.875564
  C       1.649190     -0.487248     -0.718797
  C       2.469290      0.480380      0.094647
  O       3.823666      0.021777      0.082884
  C       4.704208      0.749110      0.773909
  O       4.406645      1.742530      1.380063
  C       6.079763      0.168793      0.692096
  H      -5.060193     -1.185609      1.183152
  H      -6.180354     -0.023787      0.481023
  H      -4.748629      0.540877      1.323985
  H      -4.420903      0.688327     -1.151035
  H      -4.838604     -0.997520     -1.319266
  H      -2.825298     -1.636015      0.008018
  H      -2.472512     -0.820822     -1.497049
  H      -2.482990      0.503109      1.247352
  H      -2.116603      1.316305     -0.253808
  H      -0.130695      0.661094      1.121500
  H      -0.531496     -1.023876      0.894425
  H       0.160729      0.936331     -1.334636
  H      -0.275984     -0.734131     -1.585135
  H       2.109758     -0.582482     -1.703155
  H       1.697070     -1.474519     -0.254540
  H       2.136012      0.544345      1.128296
  H       2.435065      1.485655     -0.326156
  H       6.075550     -0.839176      1.100357
  H       6.389147      0.101147     -0.348115
  H       6.768912      0.793833      1.248240
32
Coordinates from ORCA-job ./output/octyl_acetate/octyl_acetate E -101.202573425797
  C      -5.125565     -0.230717      0.655338
  C      -4.355299     -0.282559     -0.651531
  C      -2.891291     -0.669868     -0.500347
  C      -2.055324      0.348744      0.255838
  C      -0.592519     -0.038443      0.422519
  C       0.199093     -0.055638     -0.875334
  C       1.649099     -0.487069     -0.718945
  C       2.468977      0.479107      0.096480
  O       3.823622      0.021414      0.083210
  C       4.704212      0.748685      0.774157
  O       4.406556      1.741279      1.381624
  C       6.080247      0.169601      0.690494
  H      -5.059687     -1.182480      1.184598
  H      -6.180607     -0.023235      0.479291
  H      -4.749504      0.544678      1.321217
  H      -4.420277      0.686722     -1.153281
  H      -4.838372     -0.999414     -1.318699
  H      -2.825828     -1.636558      0.009320
  H      -2.471964     -0.822579     -1.496204
  H      -2.483131      0.502284      1.247749
  H      -2.117047      1.315660     -0.253518
  H      -0.131005      0.660911      1.121945
  H      -0.531300     -1.024213      0.894272
  H       0.161042      0.937363     -1.333546
  H      -0.276153     -0.732821     -1.585461
  H       2.109892     -0.580553     -1.703364
  H       1.696695     -1.475169     -0.256421
  H       2.135900      0.540274      1.130383
  H       2.433912      1.485361     -0.321908
  H       6.077929     -0.838061      1.099526
  H       6.388359      0.101568     -0.350047
  H       6.769338      0.795726      1.245519
