42
Coordinates from ORCA-job ./output/ciprofloxacin/ciprofloxacin E -210.031749110677
  F          -1.82038219363865      2.78589339271795     -1.12795723439518
  O           3.11000607761974      3.06842063846965     -1.26789753948142
  O           5.73918401852821      2.45926545472260     -0.75200562358333
  O           6.16192061292454      0.40816487119174     -0.02811125118563
  N           2.25147381674079     -0.56998657821292      0.35838165794522
  N          -2.47594408518462      0.36632897380939      0.12183678495703
  N          -4.85182401628250     -0.39732387534618     -0.69571143545695
  C           1.98485436746029     -1.85305231945675      0.94697651075452
  C           1.37145917294601     -2.92049288069195      0.10634228203147
  C           2.79807693106735     -3.02588873440259      0.52413667717230
  C           1.20397550525400      0.28929163080290      0.02220899255792
  C           3.51885682251300     -0.15089426544426      0.21991929192074
  C           1.50613700293071      1.52767450488841     -0.52602989238399
  C          -0.11827170946939     -0.08178943985980      0.25368630469670
  C          -1.17826138134544      0.75273315549535     -0.07812391176032
  C          -3.54448252319181      1.27044891321368      0.49207148893126
  C          -2.78171840274211     -1.02480828419071      0.37650433480298
  C           3.89830927972542      1.04522457339265     -0.29469920824340
  C           2.88662242242618      1.99180458365922     -0.75162196995144
  C          -4.75663150086095      1.02448711902595     -0.39277494350915
  C          -4.29188618535351     -1.23051874390533      0.33962466562053
  C           0.44892690851070      2.36192766239986     -0.88644958581358
  C          -0.83582028571429      1.97797784562824     -0.68682569518314
  C           5.35679058817886      1.25433140878168     -0.34295644255206
  H           6.70267977310583      2.45868820730188     -0.73299292822843
  H          -5.79279944750423     -0.66624825998203     -0.92895094833193
  H           1.68678015540653     -1.80142567678791      1.98725011856163
  H           1.17726779291813     -2.66996067276894     -0.92673680644657
  H           0.63941719704532     -3.56767047963432      0.56765716074728
  H           3.54889959709038     -2.87405822426983     -0.23723785120069
  H           3.06869641947166     -3.73892291193146      1.28866442419492
  H           4.28132155931389     -0.84064936892379      0.54754303558577
  H          -0.32636313750206     -1.02943173482410      0.71532782039291
  H          -3.79928569327030      1.10148233597897      1.54316343409666
  H          -3.22360751595651      2.30002073949858      0.41384502003676
  H          -2.39721059774001     -1.35982265683199      1.34854796116578
  H          -2.30997720506618     -1.62506420762328     -0.40242783009443
  H          -5.64353050373016      1.40615577266393      0.12612578495577
  H          -4.64782751456922      1.57836027055136     -1.32555524709761
  H          -4.72068449641217     -1.03501033571855      1.33196237510923
  H          -4.49530590444015     -2.27529841447711      0.11123871465361
  H           0.67015927879673      3.30964001108981     -1.35518749599171
