42
Coordinates from ORCA-job ./output/ciprofloxacin/ciprofloxacin E -209.968161213771
  F      -1.848000      2.529390     -1.445991
  O       3.130093      2.834683     -1.495377
  O       5.700279      2.600057     -1.100138
  O       6.267147      0.703010      0.041533
  N       2.311318     -0.571048      0.551608
  N      -2.496795      0.254483      0.076443
  N      -5.065997      0.040626     -0.735344
  C       2.075233     -1.827001      1.289940
  C       1.448796     -2.935207      0.448423
  C       2.911808     -3.020681      0.830375
  C       1.269045      0.204275      0.088838
  C       3.603719     -0.143224      0.416949
  C       1.542652      1.390043     -0.640087
  C      -0.080599     -0.142291      0.332362
  C      -1.132290      0.637452     -0.167956
  C      -3.401633      1.154733      0.800814
  C      -2.951938     -1.094598     -0.282506
  C       3.924905      1.026198     -0.288767
  C       2.877239      1.787877     -0.836671
  C      -4.791216      1.204020      0.129114
  C      -4.477115     -1.189204     -0.197985
  C       0.477836      2.160137     -1.146423
  C      -0.844588      1.783344     -0.918634
  C       5.351468      1.426440     -0.436679
  H       6.670698      2.873023     -1.200678
  H      -6.103368     -0.089897     -0.788529
  H       1.791953     -1.775440      2.362664
  H       1.275561     -2.687900     -0.621070
  H       0.788913     -3.623078      1.017827
  H       3.590506     -2.862603     -0.034690
  H       3.120303     -3.772766      1.620032
  H       4.404714     -0.726437      0.857069
  H      -0.332414     -1.002895      0.934177
  H      -3.512335      0.776607      1.840355
  H      -2.981071      2.181466      0.870993
  H      -2.494283     -1.847791      0.393314
  H      -2.638847     -1.316611     -1.326251
  H      -5.572794      1.288520      0.917590
  H      -4.853150      2.119570     -0.497162
  H      -4.797365     -1.345287      0.857376
  H      -4.823194     -2.061693     -0.793829
  H       0.664807      3.059702     -1.720268
42
Coordinates from ORCA-job ./output/ciprofloxacin/ciprofloxacin E -210.008886674281
  F      -1.871883      2.507840     -1.413315
  O       3.083714      2.870488     -1.514023
  O       5.727314      2.480800     -1.023199
  O       6.171260      0.600776      0.085509
  N       2.293416     -0.534913      0.517179
  N      -2.476797      0.246209      0.080660
  N      -5.020656      0.012006     -0.721890
  C       2.065777     -1.775348      1.242411
  C       1.437159     -2.882399      0.426545
  C       2.895884     -2.958917      0.799866
  C       1.236954      0.233823      0.064754
  C       3.567959     -0.106180      0.378192
  C       1.498034      1.413115     -0.654099
  C      -0.090756     -0.130291      0.320659
  C      -1.144884      0.630827     -0.162449
  C      -3.380126      1.133351      0.788616
  C      -2.913405     -1.097161     -0.256593
  C       3.898765      1.039025     -0.304784
  C       2.851998      1.837704     -0.868468
  C      -4.760367      1.183353      0.118795
  C      -4.429016     -1.196166     -0.165712
  C       0.432052      2.169129     -1.143015
  C      -0.864003      1.777206     -0.906937
  C       5.336435      1.354588     -0.400066
  H       6.684499      2.637181     -1.054595
  H      -6.028188     -0.119412     -0.779648
  H       1.794114     -1.708802      2.296416
  H       1.249429     -2.651114     -0.620917
  H       0.782778     -3.549907      0.986129
  H       3.568339     -2.810062     -0.043276
  H       3.123503     -3.681329      1.582013
  H       4.357704     -0.699487      0.815837
  H      -0.323631     -0.996026      0.919039
  H      -3.488740      0.775315      1.825163
  H      -2.960392      2.142325      0.841971
  H      -2.457972     -1.839093      0.418212
  H      -2.601307     -1.323689     -1.284850
  H      -5.531599      1.281718      0.899695
  H      -4.821073      2.075526     -0.517017
  H      -4.740872     -1.345058      0.883437
  H      -4.764849     -2.066473     -0.741059
  H       0.613431      3.069527     -1.712425
42
Coordinates from ORCA-job ./output/ciprofloxacin/ciprofloxacin E -210.022723081496
  F      -1.882708      2.518408     -1.342842
  O       3.061147      2.914673     -1.498770
  O       5.690543      2.426701     -0.971588
  O       6.141261      0.549426      0.087882
  N       2.287674     -0.529192      0.483557
  N      -2.466669      0.247040      0.094256
  N      -4.979316     -0.026623     -0.727897
  C       2.064394     -1.766228      1.185547
  C       1.434162     -2.874900      0.399311
  C       2.887507     -2.941385      0.765610
  C       1.218099      0.247116      0.049978
  C       3.547250     -0.089834      0.335811
  C       1.475534      1.429445     -0.644511
  C      -0.095642     -0.127752      0.316410
  C      -1.156370      0.628638     -0.140368
  C      -3.383918      1.136529      0.757278
  C      -2.885448     -1.103454     -0.190209
  C       3.885581      1.047990     -0.315500
  C       2.845767      1.888317     -0.879926
  C      -4.743805      1.179810      0.059034
  C      -4.396540     -1.198976     -0.108641
  C       0.408882      2.188634     -1.105941
  C      -0.869446      1.786671     -0.868205
  C       5.331060      1.312452     -0.378780
  H       6.642962      2.506354     -0.961446
  H      -5.972171     -0.159810     -0.821237
  H       1.801821     -1.681796      2.230506
  H       1.223532     -2.658862     -0.634807
  H       0.772371     -3.525919      0.947836
  H       3.570563     -2.799183     -0.054755
  H       3.145446     -3.635388      1.548355
  H       4.329139     -0.699755      0.759131
  H      -0.312660     -1.006260      0.899307
  H      -3.511300      0.823265      1.800858
  H      -2.958642      2.133878      0.780962
  H      -2.443886     -1.824923      0.508607
  H      -2.561098     -1.364096     -1.198400
  H      -5.521103      1.318738      0.818429
  H      -4.785116      2.035247     -0.614320
  H      -4.714206     -1.313303      0.937614
  H      -4.720362     -2.087945     -0.644894
  H       0.595712      3.096253     -1.660480
42
Coordinates from ORCA-job ./output/ciprofloxacin/ciprofloxacin E -210.027404310168
  F      -1.882269      2.596081     -1.224562
  O       3.054842      2.975621     -1.433255
  O       5.698111      2.435827     -0.922985
  O       6.152995      0.504992      0.056025
  N       2.280875     -0.547452      0.443309
  N      -2.472829      0.275031      0.125860
  N      -4.931414     -0.133829     -0.750056
  C       2.052163     -1.800842      1.106485
  C       1.428450     -2.902527      0.316056
  C       2.876088     -2.968239      0.688839
  C       1.210901      0.254995      0.047047
  C       3.538047     -0.106607      0.288938
  C       1.474865      1.456994     -0.601700
  C      -0.101226     -0.119097      0.317966
  C      -1.165471      0.658787     -0.095620
  C      -3.436194      1.191072      0.675939
  C      -2.855254     -1.107751     -0.014417
  C       3.887207      1.051479     -0.317726
  C       2.851520      1.932868     -0.848385
  C      -4.752322      1.159644     -0.099597
  C      -4.367224     -1.212973      0.028994
  C       0.408879      2.244114     -1.018427
  C      -0.867669      1.840897     -0.786769
  C       5.342738      1.291193     -0.373956
  H       6.658341      2.474496     -0.898745
  H      -5.911106     -0.295497     -0.909162
  H       1.787802     -1.720463      2.151322
  H       1.205444     -2.677801     -0.713469
  H       0.749237     -3.552555      0.842824
  H       3.583232     -2.812666     -0.108097
  H       3.155259     -3.655729      1.469410
  H       4.315118     -0.746342      0.676234
  H      -0.313546     -1.022677      0.862712
  H      -3.613541      0.963437      1.733092
  H      -3.022680      2.191826      0.642696
  H      -2.433268     -1.745557      0.771611
  H      -2.491832     -1.472298     -0.975085
  H      -5.567533      1.379839      0.597073
  H      -4.752515      1.930874     -0.867479
  H      -4.717550     -1.211819      1.070208
  H      -4.663161     -2.163881     -0.406340
  H       0.606492      3.166540     -1.544044
42
Coordinates from ORCA-job ./output/ciprofloxacin/ciprofloxacin E -210.030286887058
  F      -1.852904      2.692461     -1.178848
  O       3.075782      3.038270     -1.353754
  O       5.720868      2.442646     -0.869925
  O       6.167133      0.456210      0.014888
  N       2.265790     -0.559154      0.400554
  N      -2.475632      0.323873      0.140534
  N      -4.865546     -0.268733     -0.752427
  C       2.015989     -1.829056      1.022101
  C       1.390961     -2.915490      0.218195
  C       2.827518     -3.003997      0.608394
  C       1.205849      0.276552      0.038988
  C       3.525747     -0.124955      0.247550
  C       1.489478      1.497192     -0.555815
  C      -0.110529     -0.094074      0.295735
  C      -1.173612      0.718008     -0.064722
  C      -3.501098      1.228497      0.599897
  C      -2.805964     -1.080385      0.186188
  C       3.894553      1.054831     -0.308955
  C       2.872378      1.978483     -0.803140
  C      -4.760668      1.098182     -0.252078
  C      -4.318445     -1.225023      0.181018
  C       0.429546      2.315138     -0.938345
  C      -0.851458      1.923024     -0.719606
  C       5.355946      1.271364     -0.358613
  H       6.685299      2.440436     -0.846097
  H      -5.819981     -0.488317     -0.985510
  H       1.740469     -1.751725      2.066627
  H       1.168631     -2.681095     -0.812129
  H       0.677918     -3.556360      0.714609
  H       3.566005     -2.851305     -0.163533
  H       3.112524     -3.696364      1.385470
  H       4.293484     -0.796381      0.600176
  H      -0.323912     -1.024629      0.791701
  H      -3.728002      1.039706      1.654337
  H      -3.128962      2.242569      0.549973
  H      -2.404966     -1.593283      1.069147
  H      -2.386732     -1.559957     -0.699292
  H      -5.621193      1.379292      0.364975
  H      -4.714670      1.777974     -1.101662
  H      -4.711923     -1.106469      1.199821
  H      -4.572936     -2.232987     -0.140903
  H       0.647266      3.245033     -1.442764
42
Coordinates from ORCA-job ./output/ciprofloxacin/ciprofloxacin E -210.030877792277
  F      -1.837223      2.766711     -1.110237
  O       3.090105      3.067326     -1.292836
  O       5.728718      2.466459     -0.784994
  O       6.166884      0.445893      0.021315
  N       2.256536     -0.575691      0.360100
  N      -2.477345      0.354889      0.144276
  N      -4.828431     -0.373943     -0.727196
  C       1.996571     -1.859344      0.950298
  C       1.381699     -2.932778      0.121161
  C       2.809376     -3.033461      0.531118
  C       1.203466      0.279498      0.024407
  C       3.519423     -0.147753      0.211873
  C       1.498515      1.514903     -0.530827
  C      -0.117014     -0.090053      0.268531
  C      -1.177893      0.742615     -0.060979
  C      -3.534414      1.270720      0.507822
  C      -2.789608     -1.039486      0.364781
  C       3.896243      1.047299     -0.310084
  C       2.881452      1.992691     -0.770433
  C      -4.755256      1.041073     -0.376651
  C      -4.301592     -1.218062      0.318753
  C       0.440730      2.351305     -0.888450
  C      -0.843171      1.964929     -0.680337
  C       5.356180      1.256801     -0.363455
  H       6.692903      2.469207     -0.733788
  H      -5.763936     -0.638792     -0.990167
  H       1.705158     -1.796813      1.992794
  H       1.172538     -2.687780     -0.911216
  H       0.650501     -3.576916      0.589495
  H       3.564669     -2.878858     -0.226491
  H       3.090390     -3.739345      1.299515
  H       4.283998     -0.836225      0.539115
  H      -0.330276     -1.035140      0.734340
  H      -3.792243      1.136349      1.563158
  H      -3.188705      2.292228      0.410447
  H      -2.416429     -1.420340      1.324462
  H      -2.324220     -1.621509     -0.432743
  H      -5.642597      1.382546      0.169670
  H      -4.671085      1.626384     -1.292179
  H      -4.734221     -1.002027      1.305251
  H      -4.527364     -2.260199      0.096590
  H       0.666969      3.294694     -1.363452
42
Coordinates from ORCA-job ./output/ciprofloxacin/ciprofloxacin E -210.031194926535
  F      -1.820099      2.811899     -1.086906
  O       3.106346      3.084462     -1.234367
  O       5.738165      2.451412     -0.787597
  O       6.164837      0.413746     -0.026018
  N       2.248592     -0.576206      0.355213
  N      -2.478694      0.372673      0.134310
  N      -4.816881     -0.423835     -0.713965
  C       1.980326     -1.866795      0.927698
  C       1.379748     -2.932098      0.076007
  C       2.799911     -3.037891      0.507990
  C       1.201586      0.287807      0.026715
  C       3.514791     -0.154264      0.218583
  C       1.505635      1.531230     -0.505458
  C      -0.122648     -0.082513      0.253070
  C      -1.181022      0.759332     -0.068404
  C      -3.554110      1.283023      0.465594
  C      -2.780001     -1.011098      0.432314
  C       3.896680      1.049360     -0.280701
  C       2.887893      2.001869     -0.728766
  C      -4.757678      1.005030     -0.426289
  C      -4.289768     -1.221793      0.367226
  C       0.450206      2.374199     -0.858160
  C      -0.836216      1.990843     -0.664754
  C       5.353902      1.260670     -0.323876
  H       6.703222      2.440315     -0.782955
  H      -5.742895     -0.712267     -0.984487
  H       1.671208     -1.817178      1.965800
  H       1.189649     -2.680537     -0.958804
  H       0.638919     -3.581427      0.522572
  H       3.565349     -2.881924     -0.239711
  H       3.070719     -3.753974      1.271075
  H       4.276860     -0.849220      0.538013
  H      -0.336602     -1.034057      0.703625
  H      -3.821080      1.150930      1.518855
  H      -3.232592      2.311653      0.360845
  H      -2.417376     -1.320146      1.422000
  H      -2.289057     -1.632638     -0.318727
  H      -5.656443      1.368041      0.087207
  H      -4.657540      1.549962     -1.365332
  H      -4.742089     -0.979312      1.338579
  H      -4.492657     -2.275212      0.178821
  H       0.680906      3.325935     -1.314075
42
Coordinates from ORCA-job ./output/ciprofloxacin/ciprofloxacin E -210.031593477776
  F      -1.813087      2.788224     -1.152884
  O       3.111795      3.063242     -1.279889
  O       5.741954      2.442820     -0.793635
  O       6.161767      0.415851     -0.003900
  N       2.249551     -0.565518      0.366099
  N      -2.476012      0.368606      0.124058
  N      -4.840840     -0.381308     -0.714553
  C       1.979815     -1.846027      0.959210
  C       1.371295     -2.918302      0.121461
  C       2.794974     -3.021858      0.546920
  C       1.203284      0.292491      0.023266
  C       3.516845     -0.148605      0.225546
  C       1.507137      1.527211     -0.530212
  C      -0.120100     -0.075399      0.253528
  C      -1.178742      0.759762     -0.082078
  C      -3.544171      1.263222      0.518301
  C      -2.775754     -1.028528      0.347781
  C       3.898359      1.044384     -0.295747
  C       2.889087      1.989236     -0.758228
  C      -4.768519      1.029295     -0.356620
  C      -4.285689     -1.236884      0.306313
  C       0.452331      2.362207     -0.896555
  C      -0.833814      1.982226     -0.696855
  C       5.356034      1.251904     -0.344085
  H       6.705646      2.441260     -0.771377
  H      -5.776624     -0.651827     -0.967016
  H       1.676359     -1.786315      1.997433
  H       1.179520     -2.676135     -0.914166
  H       0.635980     -3.562655      0.581915
  H       3.551563     -2.875479     -0.210016
  H       3.063680     -3.730593      1.316262
  H       4.278548     -0.837058      0.557950
  H      -0.333179     -1.019315      0.720644
  H      -3.789281      1.078509      1.569149
  H      -3.226220      2.293826      0.456233
  H      -2.388117     -1.388354      1.309942
  H      -2.305252     -1.608152     -0.447452
  H      -5.653786      1.368325      0.194069
  H      -4.689669      1.620104     -1.269260
  H      -4.715719     -1.052722      1.300278
  H      -4.491000     -2.277352      0.061590
  H       0.680052      3.305685     -1.370656
42
Coordinates from ORCA-job ./output/ciprofloxacin/ciprofloxacin E -210.031712463646
  F      -1.822848      2.783367     -1.119509
  O       3.105714      3.066685     -1.272827
  O       5.738228      2.449352     -0.789098
  O       6.162084      0.417812     -0.013773
  N       2.253872     -0.568170      0.364624
  N      -2.474949      0.363689      0.131034
  N      -4.838899     -0.386605     -0.716520
  C       1.987581     -1.850244      0.955966
  C       1.371299     -2.918230      0.118504
  C       2.798421     -3.024671      0.532865
  C       1.205116      0.289246      0.028117
  C       3.520308     -0.149156      0.221424
  C       1.504940      1.526404     -0.523661
  C      -0.116479     -0.081940      0.262347
  C      -1.177172      0.751311     -0.070464
  C      -3.541264      1.269091      0.501488
  C      -2.782890     -1.029853      0.366726
  C       3.898101      1.045411     -0.298686
  C       2.885332      1.990668     -0.754253
  C      -4.759121      1.028425     -0.379946
  C      -4.292929     -1.232492      0.316595
  C       0.447214      2.360259     -0.883066
  C      -0.837213      1.976027     -0.680481
  C       5.355911      1.254083     -0.351964
  H       6.701400      2.449956     -0.767146
  H      -5.775589     -0.654726     -0.968076
  H       1.691857     -1.795167      1.996696
  H       1.172861     -2.670806     -0.914576
  H       0.639686     -3.564078      0.582567
  H       3.548244     -2.875843     -0.230113
  H       3.070971     -3.737065      1.297396
  H       4.284164     -0.836819      0.550064
  H      -0.325624     -1.027988      0.726883
  H      -3.795320      1.102964      1.553361
  H      -3.216421      2.297578      0.422930
  H      -2.404810     -1.379264      1.336224
  H      -2.308196     -1.620647     -0.417653
  H      -5.646395      1.383569      0.157111
  H      -4.668210      1.604355     -1.301039
  H      -4.729675     -1.038824      1.305928
  H      -4.499178     -2.274645      0.079839
  H       0.669879      3.306987     -1.353076
42
Coordinates from ORCA-job ./output/ciprofloxacin/ciprofloxacin E -210.031735219531
  F      -1.821184      2.789122     -1.119303
  O       3.107808      3.069730     -1.265350
  O       5.739244      2.449921     -0.778496
  O       6.160908      0.412383     -0.017549
  N       2.251533     -0.569410      0.360550
  N      -2.475837      0.366901      0.128665
  N      -4.837840     -0.395026     -0.710809
  C       1.984728     -1.852755      0.948744
  C       1.373157     -2.920580      0.107688
  C       2.798856     -3.025325      0.527301
  C       1.203567      0.289812      0.025388
  C       3.518480     -0.150887      0.219744
  C       1.505218      1.528481     -0.522316
  C      -0.118507     -0.081057      0.257813
  C      -1.178809      0.753990     -0.072477
  C      -3.545284      1.270507      0.495268
  C      -2.781605     -1.024101      0.382037
  C       3.897558      1.044933     -0.296477
  C       2.885694      1.992232     -0.750269
  C      -4.757659      1.023672     -0.390797
  C      -4.291381     -1.230555      0.330213
  C       0.447828      2.363306     -0.880842
  C      -0.836865      1.979664     -0.680213
  C       5.355722      1.252795     -0.347777
  H       6.702733      2.448856     -0.758115
  H      -5.773457     -0.666805     -0.962030
  H       1.685224     -1.799992      1.988547
  H       1.178447     -2.672030     -0.925830
  H       0.640199     -3.567913      0.567563
  H       3.551423     -2.874551     -0.232672
  H       3.070187     -3.738245      1.291783
  H       4.281647     -0.840314      0.546506
  H      -0.327276     -1.028460      0.719566
  H      -3.802126      1.102751      1.546167
  H      -3.224337      2.300077      0.417504
  H      -2.405450     -1.358538      1.357583
  H      -2.302829     -1.624197     -0.392725
  H      -5.647117      1.388107      0.136389
  H      -4.658724      1.589156     -1.317602
  H      -4.730676     -1.031465      1.317315
  H      -4.493912     -2.275177      0.100956
  H       0.670714      3.310987     -1.348881
42
Coordinates from ORCA-job ./output/ciprofloxacin/ciprofloxacin E -210.031743570107
  F      -1.820967      2.788023     -1.122431
  O       3.109044      3.069758     -1.264808
  O       5.739855      2.451526     -0.772144
  O       6.160887      0.409901     -0.021655
  N       2.251411     -0.569228      0.360025
  N      -2.475836      0.366748      0.126250
  N      -4.842510     -0.395202     -0.706278
  C       1.984655     -1.852356      0.948725
  C       1.372616     -2.920083      0.107659
  C       2.798733     -3.024758      0.526908
  C       1.203646      0.289998      0.024393
  C       3.518675     -0.150770      0.220233
  C       1.505598      1.528742     -0.523499
  C      -0.118404     -0.081183      0.256283
  C      -1.178759      0.753408     -0.074816
  C      -3.545254      1.270003      0.495031
  C      -2.781869     -1.024266      0.380542
  C       3.897873      1.045058     -0.295606
  C       2.885903      1.992316     -0.749827
  C      -4.757180      1.024333     -0.391209
  C      -4.291801     -1.231125      0.332007
  C       0.448076      2.362947     -0.882780
  C      -0.836585      1.979023     -0.682661
  C       5.356323      1.253115     -0.346111
  H       6.703356      2.450431     -0.753505
  H      -5.779748     -0.665897     -0.952303
  H       1.685499     -1.800324      1.988625
  H       1.178403     -2.670694     -0.925683
  H       0.640184     -3.567554      0.568015
  H       3.550476     -2.873523     -0.233681
  H       3.069582     -3.737783      1.291375
  H       4.281649     -0.840101      0.547500
  H      -0.326458     -1.028704      0.718218
  H      -3.801557      1.099414      1.545517
  H      -3.224918      2.299870      0.418944
  H      -2.403556     -1.357304      1.355746
  H      -2.304390     -1.624897     -0.394492
  H      -5.645731      1.394968      0.133139
  H      -4.654444      1.586582     -1.319582
  H      -4.728783     -1.035711      1.320796
  H      -4.493529     -2.275532      0.100852
  H       0.669836      3.310835     -1.350949
42
Coordinates from ORCA-job ./output/ciprofloxacin/ciprofloxacin E -210.031746921566
  F      -1.820995      2.786717     -1.124778
  O       3.109604      3.069552     -1.265474
  O       5.739840      2.454350     -0.764447
  O       6.161235      0.408814     -0.024392
  N       2.251427     -0.569461      0.359247
  N      -2.475832      0.366586      0.124609
  N      -4.846450     -0.395831     -0.701940
  C       1.984858     -1.852470      0.948132
  C       1.371870     -2.920040      0.107432
  C       2.798421     -3.025008      0.525641
  C       1.203758      0.289833      0.023529
  C       3.518806     -0.150787      0.220001
  C       1.505817      1.528477     -0.524647
  C      -0.118290     -0.081354      0.255455
  C      -1.178595      0.753082     -0.075911
  C      -3.545118      1.269921      0.494186
  C      -2.781905     -1.024436      0.379406
  C       3.898115      1.045073     -0.295453
  C       2.886120      1.992231     -0.750526
  C      -4.756570      1.024666     -0.392251
  C      -4.291971     -1.231067      0.334726
  C       0.448274      2.362527     -0.884312
  C      -0.836358      1.978490     -0.684267
  C       5.356763      1.253388     -0.345240
  H       6.703348      2.453521     -0.745717
  H      -5.785220     -0.665689     -0.942843
  H       1.686508     -1.800795      1.988295
  H       1.177494     -2.669908     -0.925686
  H       0.639847     -3.567410      0.568503
  H       3.549401     -2.873413     -0.235598
  H       3.069219     -3.738074      1.290058
  H       4.281586     -0.840263      0.547403
  H      -0.326032     -1.028981      0.717328
  H      -3.801216      1.098835      1.544602
  H      -3.224724      2.299786      0.418159
  H      -2.401513     -1.357421      1.353790
  H      -2.306113     -1.625236     -0.396531
  H      -5.644472      1.400840      0.129129
  H      -4.650305      1.583260     -1.322448
  H      -4.726228     -1.037197      1.324996
  H      -4.493741     -2.275494      0.103466
  H       0.669341      3.310392     -1.352870
42
Coordinates from ORCA-job ./output/ciprofloxacin/ciprofloxacin E -210.031748477310
  F      -1.820770      2.785883     -1.126881
  O       3.109839      3.068972     -1.266645
  O       5.739507      2.457112     -0.757450
  O       6.161626      0.408225     -0.026947
  N       2.251480     -0.569693      0.358881
  N      -2.475915      0.366319      0.122904
  N      -4.850053     -0.396396     -0.698117
  C       1.985004     -1.852716      0.947682
  C       1.371678     -2.920248      0.107097
  C       2.798383     -3.025375      0.524851
  C       1.203898      0.289540      0.022848
  C       3.518875     -0.150737      0.220114
  C       1.505997      1.528018     -0.525412
  C      -0.118243     -0.081640      0.254513
  C      -1.178392      0.752712     -0.077320
  C      -3.544708      1.270113      0.493123
  C      -2.781946     -1.024823      0.377338
  C       3.898238      1.045225     -0.294863
  C       2.886359      1.992186     -0.750662
  C      -4.756525      1.024853     -0.392509
  C      -4.292121     -1.230818      0.337295
  C       0.448624      2.362047     -0.885723
  C      -0.836068      1.977984     -0.685989
  C       5.356831      1.253868     -0.344124
  H       6.702995      2.456400     -0.738773
  H      -5.790258     -0.665508     -0.934219
  H       1.686966     -1.801174      1.987966
  H       1.177338     -2.669738     -0.925947
  H       0.639828     -3.567578      0.568491
  H       3.549092     -2.873479     -0.236613
  H       3.069108     -3.738428      1.289321
  H       4.281476     -0.840392      0.547593
  H      -0.326096     -1.029222      0.716411
  H      -3.800086      1.099885      1.543865
  H      -3.223920      2.299811      0.416112
  H      -2.399069     -1.359112      1.350286
  H      -2.308574     -1.625202     -0.400465
  H      -5.643714      1.404782      0.127253
  H      -4.648393      1.580597     -1.324236
  H      -4.723083     -1.036773      1.328978
  H      -4.494799     -2.275348      0.107105
  H       0.669591      3.309871     -1.354372
42
Coordinates from ORCA-job ./output/ciprofloxacin/ciprofloxacin E -210.031749110677
  F      -1.820382      2.785893     -1.127957
  O       3.110006      3.068421     -1.267898
  O       5.739184      2.459265     -0.752006
  O       6.161921      0.408165     -0.028111
  N       2.251474     -0.569987      0.358382
  N      -2.475944      0.366329      0.121837
  N      -4.851824     -0.397324     -0.695711
  C       1.984854     -1.853052      0.946977
  C       1.371459     -2.920493      0.106342
  C       2.798077     -3.025889      0.524137
  C       1.203976      0.289292      0.022209
  C       3.518857     -0.150894      0.219919
  C       1.506137      1.527675     -0.526030
  C      -0.118272     -0.081789      0.253686
  C      -1.178261      0.752733     -0.078124
  C      -3.544483      1.270449      0.492071
  C      -2.781718     -1.024808      0.376504
  C       3.898309      1.045225     -0.294699
  C       2.886622      1.991805     -0.751622
  C      -4.756632      1.024487     -0.392775
  C      -4.291886     -1.230519      0.339625
  C       0.448927      2.361928     -0.886450
  C      -0.835820      1.977978     -0.686826
  C       5.356791      1.254331     -0.342956
  H       6.702680      2.458688     -0.732993
  H      -5.792799     -0.666248     -0.928951
  H       1.686780     -1.801426      1.987250
  H       1.177268     -2.669961     -0.926737
  H       0.639417     -3.567670      0.567657
  H       3.548900     -2.874058     -0.237238
  H       3.068696     -3.738923      1.288664
  H       4.281322     -0.840649      0.547543
  H      -0.326363     -1.029432      0.715328
  H      -3.799286      1.101482      1.543163
  H      -3.223608      2.300021      0.413845
  H      -2.397211     -1.359823      1.348548
  H      -2.309977     -1.625064     -0.402428
  H      -5.643531      1.406156      0.126126
  H      -4.647828      1.578360     -1.325555
  H      -4.720684     -1.035010      1.331962
  H      -4.495306     -2.275298      0.111239
  H       0.670159      3.309640     -1.355187
