27
Coordinates from ORCA-job ./output/geranial/geranial E -82.645639841074
  C          -3.58961825251477     -1.24744928132310      0.70090859825297
  C          -2.47039467156609     -0.41710416646289      0.15136275469252
  C          -1.25835143980365     -0.93547732001684     -0.02178262176189
  C          -0.03398632968448     -0.26098192657198     -0.54785173695404
  C           0.99195566117966     -0.02457049743844      0.56379176347587
  C           2.24357097961375      0.60128100190217      0.03504882358456
  C           3.26336008432310     -0.08645486696432     -0.49648128929774
  C           3.35340580698528     -1.54149656333411     -0.61549438395886
  O           2.46541970415720     -2.33588965907938     -0.41081381497373
  C           2.29834344928783      2.09070146907273      0.10978547988121
  C          -2.85064151964763      0.99456302272348     -0.17093040424236
  H          -3.98377237651696     -0.80878176217078      1.61923170026961
  H          -4.41863259911394     -1.29633962096560     -0.00731617409526
  H          -3.26777319259676     -2.26340377909532      0.91848668555697
  H          -1.10996238406332     -1.97238939570433      0.26509510578495
  H           0.42597768848097     -0.90088732624297     -1.30127491785844
  H          -0.27546093668729      0.68194675197278     -1.03649371414100
  H           1.21599314484709     -0.97787552324067      1.03645333327669
  H           0.55211163501643      0.63321242715765      1.31506107113368
  H           4.13123403492524      0.45567069351377     -0.85299600714262
  H           4.34668462792558     -1.91109698399862     -0.92824305358412
  H           1.41330855821785      2.52214202936285     -0.35950747242667
  H           2.28715146653397      2.40931668731937      1.15278470723188
  H           3.18351729117982      2.49904253963882     -0.37119260761035
  H          -3.63304394316111      1.01385503197446     -0.93163081211320
  H          -3.26140983035141      1.48501281985000      0.71315217642860
  H          -2.01898665696637      1.59345519812127     -0.52915218940921
