30
Coordinates from ORCA-job ./output/chamazulene/chamazulene E -89.340963242159
  C       3.781732      0.390524     -0.430019
  C       2.994395      0.048609      0.831492
  C       1.558717     -0.302298      0.492250
  C       0.652107      0.761698      0.440670
  C      -0.705949      0.708361      0.147558
  C      -1.540957      1.822643      0.127370
  C      -2.823324      1.422254     -0.179355
  C      -2.831240      0.058257     -0.361146
  C      -1.546211     -0.444423     -0.173586
  C      -1.193849     -1.795725     -0.297735
  C       0.103624     -2.299845     -0.134472
  C       1.292570     -1.650752      0.205051
  C      -2.277827     -2.792964     -0.650439
  C      -1.144618      3.243455      0.398551
  H       3.794025     -0.477107     -1.123758
  H       4.828250      0.643575     -0.158640
  H       3.326430      1.264059     -0.943745
  H       3.494439     -0.795562      1.355447
  H       3.034730      0.912345      1.531290
  H       1.055998      1.743959      0.655856
  H      -3.686409      2.069614     -0.265154
  H      -3.715719     -0.510470     -0.615671
  H       0.227851     -3.366521     -0.285406
  H       2.145709     -2.319218      0.257343
  H      -1.904408     -3.837810     -0.701876
  H      -3.078966     -2.766085      0.118304
  H      -2.710212     -2.542399     -1.642272
  H      -0.743926      3.329845      1.430138
  H      -0.367862      3.560900     -0.328164
  H      -2.019099      3.921081      0.300118
30
Coordinates from ORCA-job ./output/chamazulene/chamazulene E -89.347892079259
  C       3.777721      0.388490     -0.437745
  C       2.981834      0.046901      0.817052
  C       1.548120     -0.305169      0.495545
  C       0.640026      0.744796      0.442218
  C      -0.709373      0.706092      0.148547
  C      -1.537017      1.835020      0.132068
  C      -2.823672      1.418893     -0.184783
  C      -2.843537      0.039149     -0.373109
  C      -1.556994     -0.458353     -0.180935
  C      -1.189874     -1.795467     -0.299364
  C       0.099075     -2.289829     -0.122687
  C       1.277418     -1.640221      0.220096
  C      -2.258205     -2.789622     -0.652436
  C      -1.126620      3.248751      0.410445
  H       3.791046     -0.457400     -1.124193
  H       4.807384      0.638478     -0.179875
  H       3.335445      1.241718     -0.951018
  H       3.465862     -0.782022      1.335872
  H       3.014815      0.892860      1.505457
  H       1.043779      1.725781      0.662831
  H      -3.682810      2.067493     -0.271848
  H      -3.720533     -0.532705     -0.630004
  H       0.218279     -3.356374     -0.265528
  H       2.131696     -2.304099      0.288130
  H      -1.873129     -3.805234     -0.696562
  H      -3.053003     -2.767358      0.091756
  H      -2.686588     -2.550444     -1.624933
  H      -0.732952      3.345717      1.423246
  H      -0.359969      3.576055     -0.293159
  H      -1.978222      3.918102      0.314913
30
Coordinates from ORCA-job ./output/chamazulene/chamazulene E -89.348540320753
  C       3.776869      0.392123     -0.444134
  C       2.981478      0.048477      0.808556
  C       1.548710     -0.308772      0.496345
  C       0.632657      0.733240      0.442687
  C      -0.712964      0.703684      0.150172
  C      -1.537122      1.840591      0.135200
  C      -2.821571      1.420395     -0.187549
  C      -2.848408      0.035850     -0.381368
  C      -1.564324     -0.462885     -0.185094
  C      -1.187838     -1.797237     -0.298882
  C       0.096309     -2.289170     -0.109524
  C       1.272795     -1.639936      0.234479
  C      -2.251888     -2.790944     -0.657369
  C      -1.118507      3.246971      0.417643
  H       3.791192     -0.449888     -1.133596
  H       4.805438      0.645613     -0.193717
  H       3.333151      1.240762     -0.961476
  H       3.463063     -0.779167      1.327906
  H       3.007363      0.893159      1.496312
  H       1.034156      1.715556      0.666414
  H      -3.678680      2.072674     -0.275858
  H      -3.722642     -0.536692     -0.641650
  H       0.208477     -3.357547     -0.244543
  H       2.127115     -2.303199      0.316220
  H      -1.857386     -3.801127     -0.699520
  H      -3.053236     -2.770903      0.077847
  H      -2.681726     -2.552947     -1.628079
  H      -0.725458      3.349975      1.428361
  H      -0.350396      3.581862     -0.278296
  H      -1.966627      3.919482      0.322512
30
Coordinates from ORCA-job ./output/chamazulene/chamazulene E -89.348758033907
  C       3.773433      0.400656     -0.449060
  C       2.984312      0.049598      0.803046
  C       1.552651     -0.314458      0.497756
  C       0.627881      0.723102      0.443050
  C      -0.715045      0.700162      0.152273
  C      -1.537443      1.843321      0.137027
  C      -2.817596      1.423609     -0.191090
  C      -2.849260      0.036677     -0.388429
  C      -1.569398     -0.464667     -0.188403
  C      -1.186383     -1.800439     -0.296823
  C       0.093109     -2.292561     -0.096020
  C       1.271759     -1.644355      0.248236
  C      -2.249958     -2.793155     -0.661666
  C      -1.112519      3.243617      0.422208
  H       3.789778     -0.438087     -1.143944
  H       4.802502      0.660568     -0.205562
  H       3.323232      1.246783     -0.966968
  H       3.468451     -0.779083      1.319704
  H       3.004241      0.892879      1.493965
  H       1.027346      1.707174      0.666782
  H      -3.672367      2.079488     -0.281316
  H      -3.722321     -0.535998     -0.651976
  H       0.197751     -3.362599     -0.224061
  H       2.125152     -2.308312      0.339118
  H      -1.851136     -3.802232     -0.704722
  H      -3.057646     -2.774393      0.067843
  H      -2.681136     -2.552834     -1.632082
  H      -0.719756      3.351057      1.433393
  H      -0.341261      3.583620     -0.268985
  H      -1.958375      3.920863      0.326704
30
Coordinates from ORCA-job ./output/chamazulene/chamazulene E -89.348835207955
  C       3.767741      0.412281     -0.450887
  C       2.986630      0.047885      0.801169
  C       1.555902     -0.320832      0.498907
  C       0.626716      0.716683      0.442206
  C      -0.714367      0.696519      0.152779
  C      -1.536573      1.843464      0.136555
  C      -2.813214      1.426585     -0.194797
  C      -2.846632      0.038354     -0.394241
  C      -1.570874     -0.465108     -0.190805
  C      -1.185830     -1.803841     -0.294595
  C       0.089910     -2.297098     -0.087276
  C       1.272232     -1.649956      0.256344
  C      -2.251057     -2.794797     -0.661971
  C      -1.108101      3.241097      0.423181
  H       3.786551     -0.421283     -1.152768
  H       4.796737      0.677905     -0.211286
  H       3.310020      1.258612     -0.963086
  H       3.475671     -0.783381      1.309952
  H       3.003820      0.886201      1.499000
  H       1.025815      1.701586      0.664553
  H      -3.666336      2.084543     -0.286662
  H      -3.719512     -0.533811     -0.660236
  H       0.190045     -3.368120     -0.210663
  H       2.124070     -2.315531      0.350910
  H      -1.853340     -3.804695     -0.707198
  H      -3.060622     -2.775676      0.066331
  H      -2.683125     -2.551387     -1.631803
  H      -0.715416      3.349555      1.434903
  H      -0.334908      3.582333     -0.266185
  H      -1.951952      3.921914      0.327668
30
Coordinates from ORCA-job ./output/chamazulene/chamazulene E -89.348908600103
  C       3.756801      0.435112     -0.450427
  C       2.988720      0.041830      0.800271
  C       1.559147     -0.331922      0.500137
  C       0.627026      0.708537      0.440122
  C      -0.711240      0.690596      0.152144
  C      -1.533257      1.842728      0.133472
  C      -2.805856      1.430865     -0.200921
  C      -2.841250      0.039862     -0.400799
  C      -1.571075     -0.466108     -0.194139
  C      -1.185962     -1.809779     -0.291644
  C       0.084501     -2.304675     -0.078011
  C       1.272667     -1.658995      0.264505
  C      -2.254828     -2.797244     -0.659240
  C      -1.099866      3.238257      0.420655
  H       3.779593     -0.386495     -1.166633
  H       4.784948      0.708237     -0.213909
  H       3.287026      1.284866     -0.946645
  H       3.486942     -0.795506      1.290411
  H       3.003903      0.867434      1.513767
  H       1.027384      1.693670      0.659956
  H      -3.656954      2.091005     -0.295188
  H      -3.714788     -0.530940     -0.668504
  H       0.180536     -3.376713     -0.195868
  H       2.121706     -2.327640      0.361878
  H      -1.861506     -3.809059     -0.708090
  H      -3.063732     -2.776381      0.070471
  H      -2.688475     -2.549375     -1.627672
  H      -0.706708      3.346200      1.432689
  H      -0.324858      3.577960     -0.268137
  H      -1.940545      3.923671      0.325352
30
Coordinates from ORCA-job ./output/chamazulene/chamazulene E -89.348965409214
  C       3.743616      0.465591     -0.446207
  C       2.989615      0.031948      0.799947
  C       1.560994     -0.345160      0.499926
  C       0.629107      0.700837      0.436162
  C      -0.706152      0.684156      0.149187
  C      -1.527631      1.841747      0.127919
  C      -2.797478      1.435109     -0.207450
  C      -2.834963      0.040249     -0.406481
  C      -1.570190     -0.468174     -0.196874
  C      -1.187540     -1.817256     -0.288263
  C       0.077893     -2.313629     -0.071314
  C       1.272138     -1.669229      0.269661
  C      -2.261127     -2.800277     -0.653105
  C      -1.088585      3.236023      0.414201
  H       3.770667     -0.338036     -1.182302
  H       4.770192      0.744983     -0.209751
  H       3.260931      1.322158     -0.917774
  H       3.498890     -0.813990      1.263017
  H       3.004132      0.838084      1.535612
  H       1.032583      1.685147      0.653639
  H      -3.646944      2.096767     -0.304046
  H      -3.710041     -0.528226     -0.674614
  H       0.171979     -3.386391     -0.184421
  H       2.117884     -2.341575      0.368444
  H      -1.873704     -3.814284     -0.705160
  H      -3.066846     -2.776489      0.080251
  H      -2.696693     -2.548698     -1.619795
  H      -0.693503      3.341665      1.425752
  H      -0.313125      3.571541     -0.276237
  H      -1.926096      3.925410      0.320075
30
Coordinates from ORCA-job ./output/chamazulene/chamazulene E -89.348999229762
  C       3.732915      0.495174     -0.438436
  C       2.989292      0.021131      0.800024
  C       1.561055     -0.356360      0.498174
  C       0.632114      0.695346      0.432277
  C      -0.701208      0.679243      0.145448
  C      -1.521339      1.840940      0.121387
  C      -2.790943      1.437623     -0.211805
  C      -2.830975      0.039164     -0.406909
  C      -1.568925     -0.470938     -0.197795
  C      -1.190245     -1.823742     -0.286254
  C       0.072358     -2.321297     -0.070067
  C       1.270531     -1.677781      0.269851
  C      -2.268206     -2.802955     -0.646142
  C      -1.077084      3.234903      0.404265
  H       3.762742     -0.288724     -1.194975
  H       4.757986      0.776662     -0.198795
  H       3.240998      1.360314     -0.883457
  H       3.507772     -0.833544      1.235280
  H       3.004221      0.806267      1.557971
  H       1.039621      1.678137      0.648004
  H      -3.639693      2.099780     -0.309923
  H      -3.708396     -0.526788     -0.672619
  H       0.166817     -3.394321     -0.180937
  H       2.113717     -2.353108      0.368504
  H      -1.885435     -3.818537     -0.698968
  H      -3.069914     -2.775692      0.091245
  H      -2.705582     -2.550467     -1.611558
  H      -0.678930      3.338528      1.414513
  H      -0.302696      3.564664     -0.289718
  H      -1.912567      3.926378      0.311417
30
Coordinates from ORCA-job ./output/chamazulene/chamazulene E -89.349012507823
  C       3.728375      0.513112     -0.431812
  C       2.988681      0.014090      0.799738
  C       1.560387     -0.361939      0.495790
  C       0.634450      0.692782      0.429155
  C      -0.698481      0.677222      0.142124
  C      -1.517253      1.840463      0.117091
  C      -2.788057      1.437905     -0.212942
  C      -2.829947      0.037976     -0.405202
  C      -1.568338     -0.473163     -0.196675
  C      -1.192827     -1.827046     -0.284768
  C       0.069406     -2.325411     -0.071263
  C       1.268635     -1.682334      0.267752
  C      -2.273008     -2.804385     -0.641399
  C      -1.069960      3.234455      0.396645
  H       3.758898     -0.257215     -1.201832
  H       4.752783      0.793008     -0.188484
  H       3.233278      1.384855     -0.859453
  H       3.511491     -0.846338      1.217493
  H       3.003951      0.785390      1.571656
  H       1.044735      1.674392      0.644226
  H      -3.636860      2.099893     -0.311488
  H      -3.709095     -0.526190     -0.668634
  H       0.164771     -3.398396     -0.182025
  H       2.110757     -2.358936      0.366001
  H      -1.891763     -3.820454     -0.692605
  H      -3.072887     -2.774583      0.097551
  H      -2.710883     -2.553258     -1.606713
  H      -0.668870      3.337385      1.405512
  H      -0.297296      3.560602     -0.300542
  H      -1.905072      3.926117      0.305101
30
Coordinates from ORCA-job ./output/chamazulene/chamazulene E -89.349017525929
  C       3.725649      0.525560     -0.426717
  C       2.988534      0.009245      0.799351
  C       1.560134     -0.365605      0.494250
  C       0.635849      0.690343      0.427349
  C      -0.697088      0.675916      0.140272
  C      -1.514453      1.840041      0.114107
  C      -2.786278      1.437645     -0.213101
  C      -2.830067      0.037170     -0.402270
  C      -1.568234     -0.474738     -0.195638
  C      -1.194568     -1.828820     -0.284182
  C       0.067599     -2.328082     -0.072288
  C       1.267062     -1.685633      0.266438
  C      -2.276045     -2.805247     -0.638873
  C      -1.064881      3.233924      0.390482
  H       3.756113     -0.234625     -1.206681
  H       4.749892      0.803611     -0.181007
  H       3.228949      1.402171     -0.842151
  H       3.513960     -0.855333      1.204793
  H       3.003834      0.770654      1.581051
  H       1.047843      1.671368      0.641688
  H      -3.635108      2.099650     -0.311705
  H      -3.710601     -0.525911     -0.663205
  H       0.162864     -3.401061     -0.183220
  H       2.108666     -2.362839      0.364694
  H      -1.895156     -3.821501     -0.687984
  H      -3.075647     -2.773410      0.100182
  H      -2.713998     -2.555746     -1.604497
  H      -0.661580      3.337695      1.398283
  H      -0.293415      3.557808     -0.308931
  H      -1.899831      3.925749      0.299510
30
Coordinates from ORCA-job ./output/chamazulene/chamazulene E -89.349020321369
  C       3.722764      0.537831     -0.422181
  C       2.988882      0.004712      0.798525
  C       1.560456     -0.369369      0.492646
  C       0.637280      0.687400      0.424883
  C      -0.695755      0.674532      0.138132
  C      -1.511863      1.839412      0.111520
  C      -2.784410      1.437456     -0.213556
  C      -2.829893      0.036925     -0.401009
  C      -1.568339     -0.476124     -0.194571
  C      -1.196259     -1.830484     -0.282692
  C       0.065682     -2.330908     -0.071760
  C       1.265668     -1.689304      0.266077
  C      -2.278854     -2.806093     -0.636325
  C      -1.060222      3.232996      0.385415
  H       3.753112     -0.212254     -1.211916
  H       4.746970      0.814428     -0.174717
  H       3.224208      1.418887     -0.825831
  H       3.516976     -0.863796      1.191859
  H       3.004108      0.756381      1.589723
  H       1.050604      1.668099      0.638355
  H      -3.633055      2.099748     -0.312269
  H      -3.711491     -0.525128     -0.660537
  H       0.160006     -3.403982     -0.182490
  H       2.106752     -2.367111      0.364659
  H      -1.898479     -3.822648     -0.683183
  H      -3.078983     -2.772100      0.102048
  H      -2.716319     -2.557986     -1.602544
  H      -0.654850      3.337728      1.392289
  H      -0.289784      3.555466     -0.315782
  H      -1.894911      3.925286      0.295232
30
Coordinates from ORCA-job ./output/chamazulene/chamazulene E -89.349021364826
  C       3.721119      0.544187     -0.419861
  C       2.989316      0.002455      0.798149
  C       1.560952     -0.371473      0.491953
  C       0.637985      0.685442      0.423840
  C      -0.695195      0.673630      0.137490
  C      -1.510559      1.838888      0.110221
  C      -2.783470      1.437393     -0.213870
  C      -2.829948      0.036996     -0.400028
  C      -1.568434     -0.476660     -0.194385
  C      -1.196922     -1.831152     -0.282254
  C       0.064811     -2.332383     -0.071345
  C       1.265196     -1.691472      0.266049
  C      -2.280141     -2.806464     -0.635230
  C      -1.057956      3.232345      0.382695
  H       3.751527     -0.200660     -1.214609
  H       4.745332      0.820361     -0.171762
  H       3.221395      1.427318     -0.817586
  H       3.518861     -0.868019      1.185203
  H       3.004472      0.749044      1.594245
  H       1.051737      1.666153      0.636665
  H      -3.631840      2.100068     -0.312552
  H      -3.712066     -0.524741     -0.658601
  H       0.158087     -3.405562     -0.181776
  H       2.105998     -2.369594      0.364808
  H      -1.900378     -3.823337     -0.680879
  H      -3.080721     -2.771111      0.102663
  H      -2.717281     -2.558996     -1.601820
  H      -0.651739      3.338024      1.389188
  H      -0.287828      3.554161     -0.319226
  H      -1.892308      3.925159      0.292615
30
Coordinates from ORCA-job ./output/chamazulene/chamazulene E -89.349021691355
  C       3.720170      0.546898     -0.419280
  C       2.989640      0.001569      0.797824
  C       1.561317     -0.372481      0.491698
  C       0.638361      0.684467      0.423225
  C      -0.694884      0.673128      0.137157
  C      -1.509993      1.838548      0.109846
  C      -2.782966      1.437496     -0.214425
  C      -2.829722      0.037238     -0.400645
  C      -1.568484     -0.476814     -0.194478
  C      -1.197193     -1.831455     -0.281663
  C       0.064360     -2.333069     -0.070472
  C       1.265125     -1.692534      0.266418
  C      -2.280622     -2.806632     -0.634574
  C      -1.057179      3.231952      0.382206
  H       3.750732     -0.195872     -1.215994
  H       4.744361      0.823265     -0.171160
  H       3.219665      1.430678     -0.814610
  H       3.519949     -0.869657      1.182164
  H       3.004893      0.746016      1.595960
  H       1.052133      1.665267      0.635723
  H      -3.631042      2.100525     -0.313194
  H      -3.711857     -0.524420     -0.659391
  H       0.156931     -3.406348     -0.180493
  H       2.105745     -2.370850      0.365274
  H      -1.901466     -3.823771     -0.679677
  H      -3.081561     -2.770555      0.102924
  H      -2.717270     -2.559311     -1.601461
  H      -0.650887      3.337849      1.388691
  H      -0.286986      3.553733     -0.319731
  H      -1.891270      3.925140      0.292138
