! wB97X-3c OPT FREQ TightSCF
%pal
  nprocs 40
end
* xyz 0 1
C      3.714100    -0.990425    -0.113561
C      2.882926     0.239143     0.273950
C      3.179573     0.669012     1.714220
C      1.390137    -0.002910     0.087434
C      0.654085     0.918633    -0.575900
C     -0.854033     0.848401    -0.710890
C     -1.393962    -0.618109    -0.568906
C     -0.765225    -1.263480     0.689045
C      0.768846    -1.288504     0.615219
C     -2.936375    -0.627623    -0.442709
C     -1.007749    -1.413109    -1.820742
C     -1.286492    -2.713423    -1.984825
C     -1.513012     1.864054     0.228311
C     -1.118987     2.020580     1.505227
C     -2.636681     2.731354    -0.281061
H      3.463587    -1.308877    -1.148103
H      3.526809    -1.836553     0.581472
H      4.796547    -0.742631    -0.079281
H      3.216904     1.067715    -0.390784
H      2.941286    -0.143968     2.432052
H      2.578025     1.566070     1.975346
H      4.254312     0.929757     1.819823
H      1.133056     1.821624    -0.945431
H     -1.077152     1.183707    -1.748280
H     -1.133075    -2.303786     0.822410
H     -1.078942    -0.714513     1.600643
H      1.163256    -1.509244     1.629106
H      1.078980    -2.123534    -0.048860
H     -3.268097    -0.111526     0.482837
H     -3.329825    -1.664431    -0.389415
H     -3.399649    -0.123359    -1.317911
H     -0.467330    -0.916180    -2.622271
H     -1.813835    -3.283143    -1.227739
H     -0.978826    -3.221288    -2.893059
H     -1.604577     2.747521     2.149650
H     -0.300283     1.446800     1.924598
H     -2.894897     2.490699    -1.333242
H     -3.544033     2.575484     0.340278
H     -2.339389     3.800060    -0.228652
*
