! wB97X-3c OPT FREQ TightSCF
%pal
  nprocs 40
end
* xyz 0 1
C     -2.695580     1.962941    -0.051316
C     -2.439771     0.450420    -0.205905
C     -3.578828    -0.313727     0.486080
C     -1.057412    -0.062049     0.311503
C     -0.770620    -1.574407     0.301693
C      0.720654    -1.749508     0.021174
C      1.140409    -0.458730    -0.697755
C      0.191254     0.651222    -0.209476
C     -0.211461     0.766996     1.269354
C      0.922266    -0.630400    -2.212565
O      2.527151    -0.124838    -0.521721
C      3.219566     0.114510     0.673585
O      2.670382    -0.017118     1.797233
C      4.649704     0.530096     0.601310
H     -3.659818     2.230077    -0.534447
H     -1.911848     2.568302    -0.546427
H     -2.764032     2.248314     1.019759
H     -2.490398     0.216627    -1.292074
H     -3.526017    -0.172898     1.587154
H     -3.523230    -1.398719     0.260094
H     -4.565719     0.047743     0.125365
H     -1.350764    -2.062449    -0.511212
H     -1.051082    -2.033387     1.274035
H      0.911528    -2.661581    -0.586434
H      1.259478    -1.871169     0.982408
H      0.016399     1.539568    -0.849450
H      0.307839     0.145675     2.022540
H     -0.597199     1.766303     1.547530
H      1.571882    -1.441853    -2.605550
H     -0.135888    -0.879743    -2.444976
H      1.186510     0.307686    -2.746806
H      5.225077    -0.222743     0.023490
H      5.086937     0.615065     1.619020
H      4.722630     1.513772     0.092786
*
