26
Coordinates from ORCA-job ./output/myrcene/myrcene E -66.569368832828
  C          -2.14708506132659      0.38296468045137      1.58979116231786
  C          -2.29142370801942     -0.28136045346284      0.25600081221010
  C          -1.38792931969517     -0.23342814587851     -0.71868734370660
  C          -0.06071148360342      0.45168677746928     -0.71070901056540
  C           1.09574673993102     -0.54793948451772     -0.74465521261314
  C           2.43926904935220      0.11775751235159     -0.70640779434573
  C           3.17629056184314      0.26032322338414     -1.80503883367274
  C           2.94278034675929      0.64333579779748      0.56843449091305
  C           2.36190762168651      0.51177447566957      1.75416912832519
  C          -3.57390259878778     -1.03519705568912      0.07930742535239
  H          -1.20989120424801      0.91810010732540      1.70682922660409
  H          -2.21489842048592     -0.35768608787818      2.38852416674051
  H          -2.96120126831611      1.09174494095489      1.75076365594276
  H          -1.61808368550757     -0.77242912243583     -1.63395036434765
  H           0.04379897104468      1.10804157484643      0.14950900341743
  H           0.01873855082063      1.09325332307866     -1.59147645598453
  H           0.99784272050728     -1.24084834613496      0.09242204576268
  H           1.02145026650340     -1.15025877235016     -1.65068217411397
  H           2.84563886607563     -0.12453465265503     -2.76083441836423
  H           4.13424277717605      0.76355755169586     -1.77981492126374
  H           3.88585166695873      1.17554316665752      0.50813864876603
  H           2.81870020294814      0.92489387740120      2.64290300072724
  H           1.42360596212811     -0.01097989205322      1.88520236654365
  H          -3.63676273182093     -1.50050655159040     -0.90192986726920
  H          -3.67187346108815     -1.81630661712284      0.83518095244943
  H          -4.43210236083571     -0.37150182731455      0.19805831017452
