39
Coordinates from ORCA-job ./output/alpha_longipinene/alpha_longipinene E -99.931061530413
  C           2.55020530983155      1.83372098012248      1.57892997104620
  C           1.94559312288858      1.03001474002353      0.48004192790777
  C           2.46813254106315      0.89805716625390     -0.73412774262396
  C           1.78595349786877      0.02526430217353     -1.75318697294725
  C           0.49852102073374     -0.55001772281144     -1.16861540377722
  C          -0.25515988879778      0.61507055482507     -0.49471919129706
  C           0.64211921306696      0.30964864888146      0.73718615637896
  C           0.76176656001955     -1.15825109333620      0.23729252678296
  C          -0.34963279839250     -2.08100264141679      0.74500234015751
  C          -1.71363671581608     -1.50035018633939      1.06346056845995
  C          -2.36312776660873     -0.79848237513299     -0.10774929710581
  C          -1.78237190880657      0.57688659763183     -0.42691867636880
  C          -2.30587560102084      1.00018294444649     -1.79763406137188
  C          -2.24991597373231      1.59962167192740      0.60424311548257
  C           2.06490746341734     -1.90780865478576      0.45316310875703
  H           1.85819907177069      2.60469497715055      1.92251565596909
  H           2.77093967289141      1.20053300262294      2.44025931055732
  H           3.47313590293592      2.31597494779946      1.26258092851680
  H           3.39526789956809      1.39111482515569     -1.00300114289069
  H           1.55026732031580      0.60576858233283     -2.64979280105036
  H           2.45997896637015     -0.77233000415545     -2.07847037550457
  H          -0.03269468306058     -1.16958588354336     -1.89386614176914
  H          -0.00360660630670      1.58556831340239     -0.92675836182244
  H           0.26338573895625      0.48637840324768      1.74354715254099
  H          -0.47190497602801     -2.88314038277720      0.00968523653974
  H           0.02006816556843     -2.56663263214514      1.65122300123851
  H          -1.64412424311344     -0.82577251491532      1.91859073351159
  H          -2.35341556357167     -2.32212204759354      1.39109060532122
  H          -3.43379011437916     -0.67845621480552      0.07478108222333
  H          -2.28047946515576     -1.44017050171390     -0.98953369886892
  H          -1.92106245537370      0.34986808983779     -2.58392818936938
  H          -2.01131653639572      2.02312965534323     -2.03382314486444
  H          -3.39512089714654      0.94987201215917     -1.82799836178151
  H          -3.33582981007952      1.70024431877837      0.58315370616793
  H          -1.96184821387084      1.32483012897675      1.61749142352686
  H          -1.82022537599668      2.58027297504125      0.39547709098076
  H           2.22783324174915     -2.07720812081507      1.51866294219330
  H           2.01340304298040     -2.88713877727254     -0.02612811249494
  H           2.93546484165718     -1.38825208457421      0.06787409164800
