39
Coordinates from ORCA-job ./output/alpha_longipinene/alpha_longipinene E -99.910103765393
  C       2.616520      1.840692      1.589832
  C       1.966180      1.015567      0.520762
  C       2.533880      0.878003     -0.715742
  C       1.826972     -0.010893     -1.763483
  C       0.488759     -0.579024     -1.170384
  C      -0.214240      0.641252     -0.522499
  C       0.618006      0.308310      0.747999
  C       0.742239     -1.160054      0.256135
  C      -0.395066     -2.112720      0.747993
  C      -1.755070     -1.491019      1.075662
  C      -2.379209     -0.797859     -0.129741
  C      -1.778245      0.597302     -0.448605
  C      -2.325070      1.022642     -1.832276
  C      -2.272121      1.643437      0.579183
  C       2.091427     -1.905797      0.506963
  H       2.001999      1.840339      2.514078
  H       3.617021      1.422335      1.827570
  H       2.730361      2.887506      1.237991
  H       3.477293      1.358521     -0.955830
  H       1.603382      0.597443     -2.665587
  H       2.493861     -0.843017     -2.071898
  H      -0.110440     -1.200010     -1.869128
  H       0.067406      1.625392     -0.973951
  H       0.156389      0.475914      1.741162
  H      -0.537967     -2.915506     -0.008829
  H      -0.067551     -2.623867      1.680442
  H      -1.689451     -0.819396      1.953883
  H      -2.433475     -2.318475      1.379208
  H      -3.469637     -0.686815      0.063465
  H      -2.299653     -1.472394     -1.011012
  H      -1.966816      0.333930     -2.627432
  H      -1.993720      2.050725     -2.095557
  H      -3.436908      1.010537     -1.839614
  H      -3.382257      1.698864      0.582459
  H      -1.944640      1.403947      1.609327
  H      -1.879287      2.652546      0.328078
  H       2.216032     -2.090107      1.595189
  H       2.073024     -2.887195     -0.013214
  H       3.010075     -1.391060      0.177402
39
Coordinates from ORCA-job ./output/alpha_longipinene/alpha_longipinene E -99.925520183988
  C       2.591288      1.845611      1.578050
  C       1.945404      1.017167      0.504238
  C       2.488614      0.869306     -0.708302
  C       1.808421     -0.012096     -1.738893
  C       0.496419     -0.569614     -1.165003
  C      -0.233418      0.628413     -0.516373
  C       0.623205      0.314718      0.739902
  C       0.739684     -1.154807      0.253528
  C      -0.376426     -2.087938      0.743589
  C      -1.732978     -1.480492      1.062586
  C      -2.361330     -0.784038     -0.128700
  C      -1.769875      0.589293     -0.446920
  C      -2.300001      1.013397     -1.820021
  C      -2.245763      1.616907      0.580750
  C       2.040119     -1.916587      0.501336
  H       1.990463      1.848242      2.486411
  H       3.576167      1.447613      1.824267
  H       2.707836      2.876789      1.244822
  H       3.427139      1.348785     -0.956916
  H       1.589496      0.576998     -2.634269
  H       2.475364     -0.825547     -2.039404
  H      -0.065868     -1.185286     -1.868777
  H       0.025467      1.591595     -0.959910
  H       0.195243      0.493814      1.725362
  H      -0.511219     -2.875946     -0.004156
  H      -0.032609     -2.591513      1.652350
  H      -1.665657     -0.812820      1.922890
  H      -2.392195     -2.296126      1.373577
  H      -3.433981     -0.663772      0.051673
  H      -2.278319     -1.440541     -0.999688
  H      -1.945106      0.338863     -2.601921
  H      -1.972743      2.023362     -2.074447
  H      -3.391440      1.000095     -1.834409
  H      -3.335388      1.681370      0.585437
  H      -1.923925      1.369544      1.592361
  H      -1.850366      2.606282      0.342758
  H       2.160414     -2.097915      1.571985
  H       1.996220     -2.886168     -0.001398
  H       2.941648     -1.416960      0.161635
39
Coordinates from ORCA-job ./output/alpha_longipinene/alpha_longipinene E -99.926787273790
  C       2.587332      1.838087      1.580607
  C       1.944771      1.016023      0.498604
  C       2.478971      0.861790     -0.706992
  C       1.802080     -0.009341     -1.731028
  C       0.499450     -0.561724     -1.161002
  C      -0.246745      0.620869     -0.506375
  C       0.629746      0.315429      0.740188
  C       0.741029     -1.156262      0.253698
  C      -0.375955     -2.078302      0.750208
  C      -1.736077     -1.481786      1.061460
  C      -2.366424     -0.781904     -0.123069
  C      -1.775172      0.586028     -0.444244
  C      -2.291358      1.004770     -1.819729
  C      -2.247329      1.616868      0.576361
  C       2.035728     -1.914057      0.487889
  H       1.983658      1.843120      2.484740
  H       3.568030      1.441699      1.837801
  H       2.715640      2.870013      1.259717
  H       3.417947      1.338812     -0.963979
  H       1.585807      0.574355     -2.629251
  H       2.469427     -0.818943     -2.035899
  H      -0.043574     -1.179449     -1.876720
  H       0.007664      1.584794     -0.946104
  H       0.224234      0.499624      1.732572
  H      -0.505145     -2.870639      0.007564
  H      -0.022965     -2.574540      1.655829
  H      -1.668730     -0.809045      1.916369
  H      -2.388935     -2.296385      1.379876
  H      -3.437176     -0.655484      0.050033
  H      -2.280449     -1.434155     -0.995199
  H      -1.924566      0.334346     -2.596665
  H      -1.970538      2.015375     -2.070494
  H      -3.380638      0.981373     -1.846700
  H      -3.333967      1.698583      0.566784
  H      -1.943132      1.363956      1.589621
  H      -1.834323      2.599155      0.346939
  H       2.176641     -2.085428      1.555134
  H       1.982828     -2.888943      0.001364
  H       2.922220     -1.408682      0.120093
39
Coordinates from ORCA-job ./output/alpha_longipinene/alpha_longipinene E -99.927011055424
  C       2.583137      1.836318      1.582689
  C       1.945609      1.019022      0.495432
  C       2.473140      0.871747     -0.713990
  C       1.797630     -0.001990     -1.734264
  C       0.501298     -0.561902     -1.160126
  C      -0.249644      0.613963     -0.501292
  C       0.634381      0.311214      0.741550
  C       0.743792     -1.162391      0.253683
  C      -0.377858     -2.075312      0.755206
  C      -1.739136     -1.481306      1.061584
  C      -2.370980     -0.781981     -0.120945
  C      -1.777051      0.584878     -0.444555
  C      -2.287159      1.002632     -1.822172
  C      -2.245530      1.618126      0.575124
  C       2.036625     -1.923519      0.486719
  H       1.976143      1.839045      2.485205
  H       3.564003      1.442215      1.846022
  H       2.715816      2.871188      1.270454
  H       3.408434      1.353375     -0.978151
  H       1.576241      0.576483     -2.635490
  H       2.469482     -0.806529     -2.045004
  H      -0.032916     -1.180737     -1.883380
  H       0.008585      1.579991     -0.938110
  H       0.239520      0.496815      1.739086
  H      -0.504325     -2.874398      0.017880
  H      -0.020837     -2.565257      1.663415
  H      -1.670623     -0.802712      1.913176
  H      -2.389907     -2.294922      1.386895
  H      -3.442132     -0.652064      0.049556
  H      -2.284312     -1.433316     -0.994782
  H      -1.910471      0.336876     -2.598989
  H      -1.973337      2.016956     -2.068569
  H      -3.376610      0.970005     -1.856974
  H      -3.331321      1.715487      0.554778
  H      -1.955001      1.356568      1.590853
  H      -1.816974      2.596356      0.354871
  H       2.185289     -2.089147      1.554467
  H       1.978881     -2.903478      0.009932
  H       2.918121     -1.418301      0.108217
39
Coordinates from ORCA-job ./output/alpha_longipinene/alpha_longipinene E -99.927063369831
  C       2.582123      1.830257      1.586037
  C       1.947093      1.017749      0.495501
  C       2.475445      0.869380     -0.714811
  C       1.794836     -0.001310     -1.735863
  C       0.498641     -0.562158     -1.159811
  C      -0.252188      0.611890     -0.499728
  C       0.634104      0.309740      0.741787
  C       0.745025     -1.163242      0.252481
  C      -0.377577     -2.073193      0.758009
  C      -1.739874     -1.480717      1.061816
  C      -2.374136     -0.782505     -0.119958
  C      -1.779963      0.585514     -0.445179
  C      -2.288008      1.001753     -1.823843
  C      -2.248012      1.620287      0.573740
  C       2.041504     -1.919397      0.482772
  H       1.965869      1.843101      2.482599
  H       3.556391      1.427424      1.862656
  H       2.731959      2.863559      1.274489
  H       3.410733      1.349532     -0.981524
  H       1.572521      0.576847     -2.637538
  H       2.465280     -0.805759     -2.051864
  H      -0.031351     -1.182600     -1.885633
  H       0.009747      1.578051     -0.935473
  H       0.244687      0.494219      1.742169
  H      -0.501244     -2.878019      0.025606
  H      -0.017894     -2.556964      1.669145
  H      -1.671571     -0.799330      1.911845
  H      -2.388601     -2.294743      1.390909
  H      -3.445580     -0.652454      0.050835
  H      -2.287834     -1.432710     -0.995315
  H      -1.904142      0.339767     -2.600869
  H      -1.980676      2.019152     -2.067414
  H      -3.377470      0.961748     -1.862720
  H      -3.333288      1.726243      0.546155
  H      -1.966359      1.353759      1.591043
  H      -1.811166      2.596467      0.359020
  H       2.197140     -2.080866      1.550565
  H       1.986494     -2.902193      0.010900
  H       2.917347     -1.408283      0.097465
39
Coordinates from ORCA-job ./output/alpha_longipinene/alpha_longipinene E -99.927087070219
  C       2.581269      1.829830      1.586056
  C       1.946745      1.019364      0.494611
  C       2.474184      0.873433     -0.716776
  C       1.793658      0.000375     -1.736898
  C       0.498107     -0.563166     -1.159895
  C      -0.252012      0.610966     -0.499614
  C       0.634341      0.308890      0.741690
  C       0.746019     -1.164038      0.251861
  C      -0.377003     -2.073211      0.758348
  C      -1.739266     -1.480550      1.061456
  C      -2.374301     -0.782895     -0.120139
  C      -1.780038      0.585648     -0.445098
  C      -2.287904      1.002103     -1.823651
  C      -2.248078      1.620188      0.574197
  C       2.042009     -1.921166      0.482837
  H       1.956825      1.855383      2.476772
  H       3.548054      1.416969      1.874721
  H       2.747830      2.859578      1.270909
  H       3.408413      1.354590     -0.984777
  H       1.569539      0.577097     -2.639096
  H       2.465201     -0.803036     -2.053635
  H      -0.030492     -1.183950     -1.886401
  H       0.011478      1.576744     -0.935413
  H       0.246511      0.492547      1.742828
  H      -0.499649     -2.880358      0.028251
  H      -0.017094     -2.554496      1.670976
  H      -1.671322     -0.798908      1.911326
  H      -2.387402     -2.294899      1.391252
  H      -3.445690     -0.653176      0.051679
  H      -2.288736     -1.432089     -0.996375
  H      -1.901589      0.342156     -2.601301
  H      -1.983106      2.020798     -2.065495
  H      -3.377313      0.959711     -1.863470
  H      -3.333095      1.729010      0.544039
  H      -1.969658      1.351172      1.591798
  H      -1.808683      2.595835      0.361861
  H       2.197946     -2.081262      1.550922
  H       1.986639     -2.904790      0.012557
  H       2.917663     -1.410400      0.097089
39
Coordinates from ORCA-job ./output/alpha_longipinene/alpha_longipinene E -99.927334147167
  C       2.577348      1.823936      1.586293
  C       1.943577      1.030199      0.487940
  C       2.466903      0.896815     -0.728774
  C       1.785375      0.011462     -1.743699
  C       0.493588     -0.568653     -1.161185
  C      -0.252818      0.606112     -0.500315
  C       0.634397      0.305476      0.739567
  C       0.752812     -1.166382      0.246918
  C      -0.371068     -2.072736      0.760448
  C      -1.734163     -1.480761      1.058381
  C      -2.374885     -0.787059     -0.121867
  C      -1.782099      0.585850     -0.444245
  C      -2.290498      1.004745     -1.821211
  C      -2.250272      1.616999      0.578901
  C       2.047534     -1.925933      0.481924
  H       1.886285      1.984030      2.412083
  H       3.455190      1.316953      1.991126
  H       2.909349      2.802412      1.238922
  H       3.394599      1.383597     -1.005203
  H       1.549966      0.580682     -2.648071
  H       2.462499     -0.785877     -2.066111
  H      -0.024799     -1.192561     -1.891893
  H       0.019292      1.568974     -0.937545
  H       0.257479      0.483249      1.745741
  H      -0.485335     -2.895718      0.046646
  H      -0.009530     -2.535975      1.683295
  H      -1.670393     -0.798379      1.907887
  H      -2.377297     -2.298546      1.391599
  H      -3.445886     -0.661236      0.057550
  H      -2.293935     -1.428507     -1.004346
  H      -1.888248      0.359907     -2.603933
  H      -2.003671      2.032196     -2.050675
  H      -3.379317      0.946219     -1.866216
  H      -3.333302      1.743503      0.532691
  H      -1.992413      1.330942      1.597584
  H      -1.795822      2.589574      0.382772
  H       2.205769     -2.076327      1.551759
  H       1.993018     -2.914676      0.021740
  H       2.920778     -1.414509      0.093519
39
Coordinates from ORCA-job ./output/alpha_longipinene/alpha_longipinene E -99.927845046147
  C       2.573914      1.817767      1.586807
  C       1.940371      1.039571      0.482242
  C       2.460802      0.915368     -0.738042
  C       1.779161      0.021532     -1.749295
  C       0.490617     -0.571018     -1.162789
  C      -0.254445      0.603050     -0.500602
  C       0.634587      0.303772      0.737589
  C       0.758618     -1.167036      0.242460
  C      -0.364951     -2.072249      0.761420
  C      -1.729066     -1.482217      1.056651
  C      -2.375141     -0.790984     -0.121610
  C      -1.784472      0.585313     -0.442581
  C      -2.294083      1.005022     -1.818442
  C      -2.252805      1.614440      0.582934
  C       2.053308     -1.927140      0.479261
  H       1.839999      2.124286      2.331031
  H       3.334147      1.230571      2.107790
  H       3.072615      2.716070      1.221985
  H       3.383126      1.407267     -1.020822
  H       1.535465      0.585442     -2.655025
  H       2.460531     -0.771113     -2.075904
  H      -0.019698     -1.197114     -1.897082
  H       0.022513      1.564288     -0.938625
  H       0.266338      0.476980      1.747798
  H      -0.473059     -2.905904      0.058970
  H      -0.001330     -2.522813      1.690763
  H      -1.668219     -0.799714      1.906230
  H      -2.367758     -2.303052      1.392358
  H      -3.445710     -0.668379      0.064148
  H      -2.297973     -1.426571     -1.008775
  H      -1.880252      0.371273     -2.604516
  H      -2.021212      2.038571     -2.039579
  H      -3.382284      0.934006     -1.866905
  H      -3.334158      1.753292      0.525577
  H      -2.009522      1.317149      1.602169
  H      -1.788172      2.584688      0.397793
  H       2.214220     -2.070329      1.550162
  H       1.999889     -2.919564      0.026499
  H       2.924094     -1.414525      0.087958
39
Coordinates from ORCA-job ./output/alpha_longipinene/alpha_longipinene E -99.928510892758
  C       2.569669      1.815194      1.585895
  C       1.938904      1.043544      0.478918
  C       2.458416      0.923177     -0.742306
  C       1.777035      0.026947     -1.752416
  C       0.490103     -0.570333     -1.164186
  C      -0.255388      0.602692     -0.500593
  C       0.635296      0.303851      0.736361
  C       0.761870     -1.166237      0.239987
  C      -0.360408     -2.072449      0.760867
  C      -1.725259     -1.484394      1.056418
  C      -2.374142     -0.793390     -0.120247
  C      -1.785466      0.584405     -0.440503
  C      -2.297134      1.004713     -1.815437
  C      -2.253498      1.612159      0.586598
  C       2.057175     -1.925783      0.476311
  H       1.820627      2.232990      2.258443
  H       3.226177      1.184010      2.190878
  H       3.184392      2.636528      1.216819
  H       3.378201      1.418150     -1.027190
  H       1.530003      0.589547     -2.658092
  H       2.460021     -0.763818     -2.080431
  H      -0.017565     -1.196938     -1.899792
  H       0.021430      1.563869     -0.938794
  H       0.270360      0.475323      1.748239
  H      -0.466509     -2.908816      0.061374
  H       0.004562     -2.519558      1.691578
  H      -1.665480     -0.802715      1.906698
  H      -2.361831     -2.306938      1.392319
  H      -3.444442     -0.672598      0.068541
  H      -2.298482     -1.426571     -1.009241
  H      -1.880063      0.375134     -2.603184
  H      -2.029476      2.040317     -2.033828
  H      -3.385080      0.929220     -1.863929
  H      -3.334386      1.754121      0.526768
  H      -2.013748      1.311297      1.605635
  H      -1.786583      2.581992      0.404696
  H       2.219210     -2.067075      1.547392
  H       2.004418     -2.919062      0.025350
  H       2.927075     -1.412510      0.084083
39
Coordinates from ORCA-job ./output/alpha_longipinene/alpha_longipinene E -99.929592120071
  C       2.570321      1.809837      1.583856
  C       1.936050      1.041374      0.478605
  C       2.459767      0.912420     -0.736344
  C       1.783481      0.025830     -1.749937
  C       0.494382     -0.560630     -1.166615
  C      -0.258951      0.609842     -0.501954
  C       0.634756      0.311701      0.734719
  C       0.760274     -1.157992      0.240992
  C      -0.356037     -2.072013      0.759249
  C      -1.723408     -1.489583      1.059260
  C      -2.370363     -0.793813     -0.115923
  C      -1.786734      0.582004     -0.437217
  C      -2.303778      0.999973     -1.812273
  C      -2.254365      1.610761      0.588155
  C       2.058705     -1.911712      0.472360
  H       1.823289      2.304104      2.206433
  H       3.147204      1.150177      2.236959
  H       3.258759      2.565081      1.207222
  H       3.381259      1.409388     -1.016029
  H       1.544164      0.595045     -2.653079
  H       2.464097     -0.768650     -2.069991
  H      -0.018569     -1.185463     -1.900048
  H       0.003621      1.573589     -0.941075
  H       0.262355      0.486123      1.744083
  H      -0.465579     -2.897829      0.049036
  H       0.008812     -2.530191      1.682528
  H      -1.664188     -0.812948      1.913076
  H      -2.361373     -2.312981      1.387896
  H      -3.440396     -0.673628      0.071018
  H      -2.292169     -1.430849     -1.001200
  H      -1.892530      0.365975     -2.598473
  H      -2.032889      2.032406     -2.037026
  H      -3.391428      0.926493     -1.855779
  H      -3.336173      1.742037      0.536498
  H      -2.003809      1.320065      1.606740
  H      -1.795663      2.581985      0.396952
  H       2.220326     -2.055545      1.542087
  H       2.006038     -2.901771      0.016291
  H       2.930744     -1.400616      0.078949
39
Coordinates from ORCA-job ./output/alpha_longipinene/alpha_longipinene E -99.930081492007
  C       2.572287      1.810283      1.584563
  C       1.936865      1.038028      0.479244
  C       2.461844      0.901216     -0.733217
  C       1.784554      0.022017     -1.749240
  C       0.495241     -0.554749     -1.167007
  C      -0.260426      0.614332     -0.502139
  C       0.634364      0.316514      0.734158
  C       0.757750     -1.153115      0.242346
  C      -0.354083     -2.071525      0.758217
  C      -1.723089     -1.492966      1.060331
  C      -2.368104     -0.794399     -0.114750
  C      -1.787044      0.580075     -0.436151
  C      -2.306528      0.998660     -1.810356
  C      -2.254538      1.606995      0.590299
  C       2.060518     -1.899491      0.468720
  H       1.829904      2.352734      2.170089
  H       3.093064      1.138508      2.270581
  H       3.304507      2.521172      1.205814
  H       3.387126      1.394807     -1.007971
  H       1.550405      0.595391     -2.650835
  H       2.461266     -0.776609     -2.065903
  H      -0.025116     -1.178456     -1.896446
  H      -0.005551      1.580390     -0.941493
  H       0.255385      0.494104      1.740184
  H      -0.465868     -2.890156      0.039925
  H       0.011551     -2.537159      1.676599
  H      -1.664028     -0.818192      1.916018
  H      -2.362453     -2.316496      1.384515
  H      -3.438690     -0.674111      0.068565
  H      -2.286112     -1.435623     -0.996710
  H      -1.898591      0.362391     -2.596276
  H      -2.033205      2.029560     -2.037613
  H      -3.394064      0.925804     -1.851471
  H      -3.337194      1.731687      0.544268
  H      -1.996906      1.320112      1.608285
  H      -1.800170      2.579330      0.396037
  H       2.224451     -2.046428      1.537364
  H       2.009473     -2.887504      0.008265
  H       2.931206     -1.387133      0.073193
39
Coordinates from ORCA-job ./output/alpha_longipinene/alpha_longipinene E -99.930520638769
  C       2.569744      1.813420      1.583523
  C       1.938596      1.039015      0.477686
  C       2.463749      0.901557     -0.734906
  C       1.784583      0.023604     -1.751516
  C       0.495936     -0.552583     -1.167761
  C      -0.259449      0.615725     -0.501505
  C       0.635784      0.317492      0.733909
  C       0.758358     -1.152367      0.241468
  C      -0.351908     -2.072954      0.755343
  C      -1.720439     -1.495567      1.061085
  C      -2.366787     -0.796066     -0.112938
  C      -1.786484      0.578863     -0.434113
  C      -2.307831      0.998237     -1.807132
  C      -2.254829      1.604742      0.593357
  C       2.061874     -1.898403      0.466708
  H       1.835951      2.424471      2.109909
  H       3.007494      1.135585      2.319955
  H       3.364317      2.459916      1.215657
  H       3.389512      1.395008     -1.007948
  H       1.549918      0.598478     -2.651957
  H       2.460522     -0.775199     -2.069680
  H      -0.028270     -1.175572     -1.895099
  H      -0.006648      1.582951     -0.939649
  H       0.255101      0.495786      1.739231
  H      -0.465620     -2.887361      0.032409
  H       0.015118     -2.543429      1.670795
  H      -1.659916     -0.821634      1.917364
  H      -2.359444     -2.319559      1.384835
  H      -3.437460     -0.676329      0.070288
  H      -2.284250     -1.438040     -0.994426
  H      -1.904075      0.359603     -2.593427
  H      -2.031172      2.027897     -2.036006
  H      -3.395726      0.928802     -1.845581
  H      -3.338348      1.723932      0.552031
  H      -1.991329      1.320455      1.610563
  H      -1.805742      2.579036      0.396262
  H       2.224934     -2.049688      1.534956
  H       2.011471     -2.884925      0.002583
  H       2.932772     -1.384905      0.073729
39
Coordinates from ORCA-job ./output/alpha_longipinene/alpha_longipinene E -99.930946798259
  C       2.561387      1.822118      1.581217
  C       1.942937      1.035635      0.477052
  C       2.466768      0.898449     -0.736074
  C       1.784910      0.023543     -1.753641
  C       0.497486     -0.549782     -1.168050
  C      -0.257016      0.617098     -0.498999
  C       0.638953      0.316780      0.734728
  C       0.759294     -1.153205      0.240437
  C      -0.349978     -2.076150      0.750304
  C      -1.716767     -1.498815      1.062736
  C      -2.364277     -0.797770     -0.110110
  C      -1.784224      0.577266     -0.430729
  C      -2.307737      0.998958     -1.801939
  C      -2.252792      1.600731      0.599370
  C       2.064029     -1.899012      0.460964
  H       1.847301      2.526154      2.010716
  H       2.874116      1.156582      2.388708
  H       3.434291      2.374163      1.238487
  H       3.394139      1.390781     -1.005511
  H       1.550306      0.601155     -2.652272
  H       2.459220     -0.775517     -2.074702
  H      -0.033857     -1.171313     -1.891598
  H      -0.006838      1.586481     -0.934304
  H       0.256121      0.496882      1.738976
  H      -0.468340     -2.882013      0.018342
  H       0.019080     -2.556475      1.659556
  H      -1.652131     -0.824900      1.918918
  H      -2.356183     -2.322112      1.387196
  H      -3.435147     -0.677738      0.071115
  H      -2.280083     -1.441375     -0.990446
  H      -1.913919      0.354459     -2.588586
  H      -2.022115      2.025255     -2.034497
  H      -3.396342      0.938555     -1.835681
  H      -3.337716      1.709503      0.568632
  H      -1.976516      1.321125      1.614592
  H      -1.813929      2.578612      0.396932
  H       2.227445     -2.059881      1.527726
  H       2.013921     -2.882132     -0.010735
  H       2.934207     -1.382100      0.071173
39
Coordinates from ORCA-job ./output/alpha_longipinene/alpha_longipinene E -99.930259034976
  C       2.546306      1.805181      1.580286
  C       1.932315      1.043005      0.471879
  C       2.450118      0.930574     -0.746136
  C       1.776880      0.039719     -1.756670
  C       0.493125     -0.559240     -1.170660
  C      -0.262236      0.606484     -0.499065
  C       0.638552      0.306033      0.732525
  C       0.772405     -1.158874      0.231731
  C      -0.342053     -2.074229      0.756736
  C      -1.710326     -1.494593      1.059563
  C      -2.365728     -0.799292     -0.110309
  C      -1.788151      0.579757     -0.429248
  C      -2.311135      1.000537     -1.801949
  C      -2.250470      1.603149      0.602631
  C       2.073534     -1.909429      0.453808
  H       1.898242      2.622188      1.907002
  H       2.708766      1.163426      2.450755
  H       3.516156      2.217155      1.304699
  H       3.364351      1.436468     -1.032168
  H       1.528385      0.605869     -2.659459
  H       2.462140     -0.748654     -2.081050
  H      -0.008932     -1.184804     -1.910747
  H       0.000386      1.570533     -0.938034
  H       0.281271      0.473497      1.748712
  H      -0.447536     -2.907864      0.055360
  H       0.026715     -2.522992      1.682909
  H      -1.651041     -0.818422      1.913957
  H      -2.343003     -2.320696      1.391827
  H      -3.434609     -0.683179      0.085937
  H      -2.293098     -1.427883     -1.001791
  H      -1.895244      0.375928     -2.592915
  H      -2.050948      2.037151     -2.020678
  H      -3.398199      0.918960     -1.844171
  H      -3.331216      1.742022      0.549325
  H      -2.004012      1.302225      1.619559
  H      -1.787269      2.573493      0.418605
  H       2.242808     -2.051101      1.522577
  H       2.022571     -2.899862     -0.000446
  H       2.940183     -1.392246      0.055115
39
Coordinates from ORCA-job ./output/alpha_longipinene/alpha_longipinene E -99.931026013721
  C       2.546974      1.836067      1.578966
  C       1.948283      1.028386      0.479718
  C       2.469211      0.898440     -0.735316
  C       1.785753      0.026972     -1.754769
  C       0.499263     -0.548536     -1.169109
  C      -0.254182      0.615654     -0.493495
  C       0.643921      0.309301      0.737456
  C       0.762629     -1.158710      0.236303
  C      -0.348441     -2.082369      0.742821
  C      -1.711384     -1.501566      1.064958
  C      -2.362282     -0.798994     -0.105107
  C      -1.781528      0.576286     -0.424962
  C      -2.305790      0.998721     -1.795483
  C      -2.250020      1.599648      0.605408
  C       2.065679     -1.908992      0.450394
  H       1.872722      2.639592      1.881086
  H       2.711819      1.215561      2.461523
  H       3.497105      2.276412      1.282989
  H       3.397125      1.390989     -1.002553
  H       1.549213      0.608442     -2.650570
  H       2.459788     -0.769889     -2.081883
  H      -0.034521     -1.167496     -1.892991
  H      -0.003905      1.586991     -0.924366
  H       0.264817      0.486583      1.743511
  H      -0.472773     -2.881254      0.004268
  H       0.022530     -2.571782      1.646496
  H      -1.639632     -0.827373      1.920134
  H      -2.351015     -2.323126      1.393282
  H      -3.432782     -0.678374      0.077880
  H      -2.280372     -1.441208     -0.986606
  H      -1.923248      0.346458     -2.581313
  H      -2.009355      2.020699     -2.033416
  H      -3.395156      0.950261     -1.824722
  H      -3.336199      1.697947      0.585646
  H      -1.960159      1.327074      1.618620
  H      -1.822582      2.580938      0.394862
  H       2.228554     -2.082244      1.515330
  H       2.013861     -2.887084     -0.031496
  H       2.936084     -1.388430      0.066505
39
Coordinates from ORCA-job ./output/alpha_longipinene/alpha_longipinene E -99.931046206751
  C       2.554604      1.830596      1.579556
  C       1.944686      1.031835      0.479008
  C       2.467357      0.897841     -0.734914
  C       1.785270      0.024077     -1.753187
  C       0.497791     -0.550286     -1.168314
  C      -0.256073      0.615492     -0.496253
  C       0.640885      0.312055      0.736265
  C       0.760792     -1.156599      0.238458
  C      -0.349859     -2.079166      0.747552
  C      -1.715418     -1.500146      1.062490
  C      -2.363553     -0.798482     -0.109598
  C      -1.783156      0.576981     -0.428464
  C      -2.306600      1.000839     -1.799104
  C      -2.250532      1.598979      0.603445
  C       2.064652     -1.904575      0.455536
  H       1.854557      2.580345      1.951792
  H       2.806831      1.186464      2.424072
  H       3.461235      2.336510      1.253191
  H       3.394753      1.390228     -1.004221
  H       1.550137      0.603080     -2.650856
  H       2.459388     -0.774238     -2.076559
  H      -0.033074     -1.170748     -1.893112
  H      -0.004790      1.585474     -0.929715
  H       0.261015      0.490060      1.741973
  H      -0.469720     -2.884053      0.014797
  H       0.019436     -2.561202      1.655830
  H      -1.648725     -0.825944      1.918248
  H      -2.355080     -2.322747      1.388291
  H      -3.434407     -0.678628      0.071962
  H      -2.279829     -1.440512     -0.991070
  H      -1.915897      0.355296     -2.586432
  H      -2.018090      2.026329     -2.031749
  H      -3.395434      0.943736     -1.831836
  H      -3.335744      1.705628      0.576612
  H      -1.969772      1.319365      1.617507
  H      -1.814301      2.577862      0.400120
  H       2.229307     -2.068941      1.521548
  H       2.012828     -2.886112     -0.019217
  H       2.934534     -1.386694      0.066348
39
Coordinates from ORCA-job ./output/alpha_longipinene/alpha_longipinene E -99.931060977986
  C       2.550719      1.833214      1.579074
  C       1.945590      1.030263      0.479769
  C       2.467966      0.898296     -0.734473
  C       1.785746      0.025390     -1.753441
  C       0.498450     -0.549978     -1.168704
  C      -0.255221      0.615174     -0.494980
  C       0.642008      0.310036      0.736968
  C       0.761722     -1.158010      0.237314
  C      -0.349466     -2.080818      0.745235
  C      -1.713640     -1.500438      1.063454
  C      -2.363149     -0.798489     -0.107702
  C      -1.782429      0.576868     -0.426990
  C      -2.306009      1.000048     -1.797719
  C      -2.250047      1.599685      0.604088
  C       2.064943     -1.907404      0.453452
  H       1.858740      2.603349      1.924469
  H       2.772223      1.198663      2.439217
  H       3.473369      2.315959      1.262687
  H       3.395159      1.391289     -1.003279
  H       1.549961      0.605663     -2.650164
  H       2.459919     -0.772150     -2.078551
  H      -0.032863     -1.169665     -1.893778
  H      -0.003816      1.585638     -0.927204
  H       0.262980      0.487005      1.743178
  H      -0.471448     -2.883265      0.010208
  H       0.020325     -2.566023      1.651660
  H      -1.644408     -0.826078      1.918780
  H      -2.353347     -2.322388      1.390794
  H      -3.433783     -0.678369      0.074966
  H      -2.280647     -1.440242     -0.989459
  H      -1.920041      0.350590     -2.584166
  H      -2.012666      2.023480     -2.033334
  H      -3.395179      0.948416     -1.828497
  H      -3.335820      1.701597      0.581596
  H      -1.963718      1.324083      1.617604
  H      -1.818986      2.579945      0.396307
  H       2.228041     -2.076076      1.519050
  H       2.013379     -2.887101     -0.025088
  H       2.935447     -1.388158      0.067658
39
Coordinates from ORCA-job ./output/alpha_longipinene/alpha_longipinene E -99.931061530413
  C       2.550205      1.833721      1.578930
  C       1.945593      1.030015      0.480042
  C       2.468133      0.898057     -0.734128
  C       1.785953      0.025264     -1.753187
  C       0.498521     -0.550018     -1.168615
  C      -0.255160      0.615071     -0.494719
  C       0.642119      0.309649      0.737186
  C       0.761767     -1.158251      0.237293
  C      -0.349633     -2.081003      0.745002
  C      -1.713637     -1.500350      1.063461
  C      -2.363128     -0.798482     -0.107749
  C      -1.782372      0.576887     -0.426919
  C      -2.305876      1.000183     -1.797634
  C      -2.249916      1.599622      0.604243
  C       2.064907     -1.907809      0.453163
  H       1.858199      2.604695      1.922516
  H       2.770940      1.200533      2.440259
  H       3.473136      2.315975      1.262581
  H       3.395268      1.391115     -1.003001
  H       1.550267      0.605769     -2.649793
  H       2.459979     -0.772330     -2.078470
  H      -0.032695     -1.169586     -1.893866
  H      -0.003607      1.585568     -0.926758
  H       0.263386      0.486378      1.743547
  H      -0.471905     -2.883140      0.009685
  H       0.020068     -2.566633      1.651223
  H      -1.644124     -0.825773      1.918591
  H      -2.353416     -2.322122      1.391091
  H      -3.433790     -0.678456      0.074781
  H      -2.280479     -1.440171     -0.989534
  H      -1.921062      0.349868     -2.583928
  H      -2.011317      2.023130     -2.033823
  H      -3.395121      0.949872     -1.827998
  H      -3.335830      1.700244      0.583154
  H      -1.961848      1.324830      1.617491
  H      -1.820225      2.580273      0.395477
  H       2.227833     -2.077208      1.518663
  H       2.013403     -2.887139     -0.026128
  H       2.935465     -1.388252      0.067874
