39
Coordinates from ORCA-job ./output/beta_gurjunene/beta_gurjunene E -99.875865314912
  C      -3.110948     -1.696215      0.507592
  C      -1.660423     -1.305826      0.171326
  C      -0.696118     -2.172956      1.063296
  C       0.837699     -2.144679      0.767345
  C       1.204381     -1.159557     -0.339562
  C       1.052010      0.278236      0.224537
  C       2.363638     -0.179209     -0.415458
  C       3.545211     -0.447263      0.523786
  C       2.690420      0.371298     -1.808129
  C      -0.238078      0.787393     -0.424324
  C      -1.425434      0.229333      0.381955
  C      -2.568734      1.188035      0.024550
  C      -1.903415      2.566367     -0.054185
  C      -0.469385      2.258554     -0.344678
  C       0.449999      3.194789     -0.604809
  H      -3.253518     -2.792907      0.402365
  H      -3.822752     -1.210027     -0.191389
  H      -3.363026     -1.401572      1.548977
  H      -1.505016     -1.566334     -0.897974
  H      -0.848830     -1.884630      2.126856
  H      -1.016411     -3.236179      0.995447
  H       1.161686     -3.152859      0.430875
  H       1.391079     -1.939988      1.708003
  H       0.780327     -1.393203     -1.342137
  H       1.104722      0.367485      1.333610
  H       4.095522     -1.346619      0.176744
  H       4.236559      0.421054      0.505403
  H       3.230763     -0.603051      1.575920
  H       3.234452      1.333375     -1.708025
  H       1.784097      0.544086     -2.423637
  H       3.342391     -0.350013     -2.343620
  H      -0.333369      0.511659     -1.499309
  H      -1.241479      0.390099      1.471781
  H      -3.372187      1.176755      0.792809
  H      -2.993538      0.922882     -0.969219
  H      -2.355069      3.178592     -0.864469
  H      -1.983518      3.095969      0.919822
  H       0.187943      4.247409     -0.566957
  H       1.468345      2.919718     -0.855118
39
Coordinates from ORCA-job ./output/beta_gurjunene/beta_gurjunene E -99.894689129346
  C      -3.066588     -1.677956      0.508803
  C      -1.627820     -1.288919      0.168793
  C      -0.684744     -2.162129      1.043962
  C       0.843514     -2.166177      0.758120
  C       1.194400     -1.172713     -0.322118
  C       1.037039      0.264465      0.206802
  C       2.336941     -0.194623     -0.414030
  C       3.513103     -0.420715      0.511942
  C       2.675282      0.304710     -1.801622
  C      -0.224117      0.813835     -0.419415
  C      -1.405831      0.230499      0.372313
  C      -2.560618      1.169907      0.011828
  C      -1.916044      2.562876     -0.053300
  C      -0.463327      2.296190     -0.337764
  C       0.445164      3.238151     -0.566687
  H      -3.207675     -2.757801      0.405487
  H      -3.775272     -1.194951     -0.167930
  H      -3.313366     -1.394570      1.537026
  H      -1.471143     -1.538791     -0.887746
  H      -0.843119     -1.875718      2.090450
  H      -1.030153     -3.199094      0.973652
  H       1.148263     -3.170446      0.432843
  H       1.393258     -1.964100      1.679154
  H       0.758526     -1.398340     -1.291938
  H       1.075059      0.354133      1.289850
  H       4.065557     -1.308426      0.192159
  H       4.190906      0.438794      0.478871
  H       3.202636     -0.559594      1.548131
  H       3.205576      1.258892     -1.732778
  H       1.784374      0.450351     -2.413949
  H       3.326094     -0.415023     -2.309933
  H      -0.316393      0.533933     -1.474298
  H      -1.217460      0.384726      1.445552
  H      -3.359708      1.136734      0.756314
  H      -2.973494      0.904314     -0.968495
  H      -2.366659      3.171320     -0.841222
  H      -2.020150      3.080933      0.905210
  H       0.176905      4.286436     -0.521411
  H       1.471079      2.978888     -0.792624
39
Coordinates from ORCA-job ./output/beta_gurjunene/beta_gurjunene E -99.901440842932
  C      -3.041246     -1.669314      0.518439
  C      -1.608273     -1.279398      0.171970
  C      -0.675088     -2.157677      1.038430
  C       0.850598     -2.193033      0.749918
  C       1.185798     -1.184528     -0.305326
  C       1.023326      0.245253      0.185675
  C       2.315043     -0.207798     -0.420876
  C       3.496864     -0.376103      0.495760
  C       2.662684      0.240715     -1.813665
  C      -0.213747      0.838966     -0.413117
  C      -1.398341      0.234552      0.357502
  C      -2.556069      1.158951     -0.023880
  C      -1.924805      2.559277     -0.060681
  C      -0.454924      2.325433     -0.321557
  C       0.456189      3.268029     -0.495975
  H      -3.181446     -2.744287      0.420953
  H      -3.757047     -1.187396     -0.142464
  H      -3.283932     -1.391244      1.544066
  H      -1.451329     -1.527083     -0.880780
  H      -0.834225     -1.865219      2.078566
  H      -1.047508     -3.179725      0.971951
  H       1.136125     -3.198642      0.430991
  H       1.406778     -1.995325      1.662350
  H       0.719890     -1.398455     -1.255717
  H       1.054630      0.339095      1.262247
  H       4.071943     -1.252626      0.200654
  H       4.154392      0.491954      0.446679
  H       3.192328     -0.504935      1.530237
  H       3.179057      1.199530     -1.782231
  H       1.776744      0.353990     -2.431814
  H       3.322191     -0.481054     -2.296726
  H      -0.303507      0.559254     -1.463691
  H      -1.214380      0.396410      1.425298
  H      -3.373277      1.108499      0.690403
  H      -2.944396      0.895672     -1.008628
  H      -2.366024      3.181003     -0.835980
  H      -2.058773      3.065283      0.894301
  H       0.192176      4.316432     -0.439703
  H       1.491579      3.015544     -0.683581
39
Coordinates from ORCA-job ./output/beta_gurjunene/beta_gurjunene E -99.904388795575
  C      -3.034449     -1.664279      0.556522
  C      -1.606455     -1.277695      0.188546
  C      -0.664660     -2.147882      1.056917
  C       0.854455     -2.222364      0.735112
  C       1.180326     -1.196915     -0.301452
  C       1.014095      0.222338      0.161411
  C       2.305418     -0.221770     -0.441014
  C       3.495478     -0.330347      0.473210
  C       2.656506      0.195480     -1.842737
  C      -0.211974      0.852829     -0.410603
  C      -1.408805      0.241417      0.335350
  C      -2.555372      1.151306     -0.103334
  C      -1.933069      2.553813     -0.090862
  C      -0.448709      2.336813     -0.296271
  C       0.477841      3.275165     -0.373878
  H      -3.177742     -2.739731      0.471120
  H      -3.764141     -1.183488     -0.089855
  H      -3.262752     -1.382442      1.585035
  H      -1.461028     -1.541440     -0.862507
  H      -0.801040     -1.826000      2.091983
  H      -1.063552     -3.161587      1.024508
  H       1.110261     -3.231556      0.407802
  H       1.432135     -2.043334      1.639482
  H       0.690330     -1.399972     -1.243603
  H       1.055337      0.327374      1.238911
  H       4.117960     -1.175909      0.181455
  H       4.110571      0.567905      0.429151
  H       3.198019     -0.480489      1.507777
  H       3.157145      1.163597     -1.839964
  H       1.772213      0.279601     -2.469185
  H       3.329401     -0.525400     -2.307291
  H      -0.302972      0.586101     -1.466885
  H      -1.249253      0.435125      1.403012
  H      -3.417562      1.086434      0.555050
  H      -2.884255      0.890517     -1.110604
  H      -2.348642      3.199723     -0.861588
  H      -2.107999      3.041946      0.867263
  H       0.225078      4.325053     -0.295962
  H       1.521859      3.020067     -0.502020
39
Coordinates from ORCA-job ./output/beta_gurjunene/beta_gurjunene E -99.905555274883
  C      -3.035313     -1.658466      0.600371
  C      -1.612544     -1.277821      0.206481
  C      -0.655319     -2.130292      1.078821
  C       0.850589     -2.244340      0.709828
  C       1.177994     -1.202114     -0.309283
  C       1.008606      0.207981      0.143123
  C       2.306188     -0.229116     -0.457446
  C       3.496227     -0.307276      0.460939
  C       2.661780      0.181699     -1.861532
  C      -0.216283      0.852922     -0.411157
  C      -1.423400      0.245322      0.320759
  C      -2.556506      1.145075     -0.167025
  C      -1.938840      2.547158     -0.129402
  C      -0.447426      2.332303     -0.281564
  C       0.490617      3.263023     -0.277040
  H      -3.183339     -2.734992      0.527520
  H      -3.776821     -1.179519     -0.035221
  H      -3.245770     -1.368257      1.631735
  H      -1.482401     -1.559966     -0.843138
  H      -0.753220     -1.765763      2.104902
  H      -1.074499     -3.137034      1.098828
  H       1.069794     -3.253144      0.356468
  H       1.455016     -2.101492      1.605205
  H       0.688860     -1.396636     -1.256065
  H       1.063317      0.322732      1.221625
  H       4.167192     -1.108697      0.148434
  H       4.062468      0.624151      0.450329
  H       3.202690     -0.507893      1.489307
  H       3.151440      1.156320     -1.866308
  H       1.780959      0.251846     -2.496582
  H       3.345678     -0.535763     -2.316595
  H      -0.312708      0.597128     -1.472419
  H      -1.284024      0.468125      1.387535
  H      -3.452964      1.077633      0.445246
  H      -2.836119      0.877062     -1.188773
  H      -2.332034      3.204491     -0.903948
  H      -2.144912      3.029258      0.826832
  H       0.247477      4.313846     -0.181169
  H       1.537549      3.000507     -0.359620
39
Coordinates from ORCA-job ./output/beta_gurjunene/beta_gurjunene E -99.906206084158
  C      -3.034860     -1.658147      0.630881
  C      -1.616135     -1.278711      0.220299
  C      -0.644882     -2.105576      1.102235
  C       0.841392     -2.262064      0.682712
  C       1.175152     -1.204740     -0.319202
  C       1.005802      0.199991      0.132497
  C       2.308976     -0.234101     -0.469005
  C       3.494720     -0.298722      0.455659
  C       2.667349      0.177893     -1.872694
  C      -0.220253      0.850152     -0.410845
  C      -1.434996      0.247148      0.313073
  C      -2.557854      1.141369     -0.207086
  C      -1.941730      2.543576     -0.166765
  C      -0.447443      2.325856     -0.272737
  C       0.495749      3.249936     -0.206052
  H      -3.182893     -2.736051      0.569532
  H      -3.783467     -1.185493     -0.002008
  H      -3.235241     -1.358138      1.662251
  H      -1.492541     -1.576549     -0.826699
  H      -0.696569     -1.685509      2.110744
  H      -1.079010     -3.103062      1.190479
  H       1.017026     -3.265848      0.292028
  H       1.474045     -2.167783      1.566327
  H       0.693318     -1.389597     -1.273616
  H       1.072592      0.319300      1.211543
  H       4.208353     -1.050538      0.113863
  H       4.011968      0.661029      0.490956
  H       3.205074     -0.559210      1.472436
  H       3.150747      1.156203     -1.876714
  H       1.789319      0.242595     -2.513443
  H       3.357729     -0.537130     -2.323211
  H      -0.322640      0.602461     -1.475060
  H      -1.308995      0.488354      1.378512
  H      -3.474327      1.079185      0.376453
  H      -2.807338      0.860007     -1.234108
  H      -2.317413      3.198674     -0.952797
  H      -2.171632      3.031593      0.781966
  H       0.257691      4.300681     -0.096914
  H       1.543212      2.980967     -0.255489
39
Coordinates from ORCA-job ./output/beta_gurjunene/beta_gurjunene E -99.906687505320
  C      -3.032627     -1.659655      0.655705
  C      -1.617447     -1.280204      0.232502
  C      -0.630701     -2.075691      1.125287
  C       0.828247     -2.281455      0.648359
  C       1.172503     -1.206601     -0.332078
  C       1.004706      0.194329      0.128189
  C       2.311904     -0.237725     -0.475092
  C       3.489810     -0.300931      0.458684
  C       2.674148      0.183583     -1.874739
  C      -0.222153      0.845993     -0.410434
  C      -1.442731      0.247350      0.309511
  C      -2.559787      1.137163     -0.231016
  C      -1.943512      2.540394     -0.203709
  C      -0.448072      2.319645     -0.269946
  C       0.495085      3.240093     -0.159111
  H      -3.179379     -2.738396      0.602916
  H      -3.786032     -1.193139      0.023357
  H      -3.225410     -1.351330      1.686204
  H      -1.496350     -1.591928     -0.810771
  H      -0.625598     -1.589363      2.104886
  H      -1.074577     -3.058031      1.297971
  H       0.947983     -3.273365      0.208625
  H       1.491447     -2.252371      1.514550
  H       0.698761     -1.376323     -1.293935
  H       1.078395      0.309958      1.207670
  H       4.239483     -1.002015      0.087556
  H       3.961768      0.679085      0.547150
  H       3.201877     -0.622736      1.458408
  H       3.155985      1.162858     -1.869824
  H       1.798773      0.251575     -2.518970
  H       3.366891     -0.528934     -2.326069
  H      -0.329051      0.602388     -1.475688
  H      -1.325357      0.499257      1.373546
  H      -3.485415      1.084204      0.339203
  H      -2.795283      0.839113     -1.257073
  H      -2.304770      3.181223     -1.008129
  H      -2.193386      3.044384      0.731867
  H       0.257295      4.290067     -0.042663
  H       1.542572      2.967532     -0.182899
39
Coordinates from ORCA-job ./output/beta_gurjunene/beta_gurjunene E -99.906965927613
  C      -3.028261     -1.663188      0.672978
  C      -1.616462     -1.281156      0.242120
  C      -0.616155     -2.051257      1.140950
  C       0.815623     -2.298200      0.615835
  C       1.170925     -1.207123     -0.344071
  C       1.004764      0.191406      0.131165
  C       2.312863     -0.238670     -0.474168
  C       3.483242     -0.312053      0.467844
  C       2.679708      0.197030     -1.867475
  C      -0.221612      0.842967     -0.409594
  C      -1.445365      0.247685      0.309742
  C      -2.561663      1.133464     -0.239312
  C      -1.945118      2.538303     -0.231193
  C      -0.449090      2.316750     -0.272476
  C       0.491047      3.238040     -0.144719
  H      -3.171240     -2.742532      0.624835
  H      -3.784968     -1.202285      0.040570
  H      -3.216839     -1.350283      1.702528
  H      -1.495228     -1.601394     -0.798076
  H      -0.560873     -1.512032      2.090441
  H      -1.062017     -3.017410      1.385191
  H       0.881525     -3.273826      0.130397
  H       1.502639     -2.332846      1.463067
  H       0.700646     -1.359793     -1.310015
  H       1.077890      0.296581      1.211113
  H       4.250482     -0.983284      0.079026
  H       3.932658      0.674273      0.595248
  H       3.191997     -0.672718      1.452930
  H       3.165473      1.174022     -1.848961
  H       1.805881      0.276242     -2.511958
  H       3.370002     -0.513579     -2.325131
  H      -0.328959      0.598552     -1.474155
  H      -1.332227      0.503519      1.372718
  H      -3.486208      1.088935      0.332957
  H      -2.798502      0.822043     -1.260874
  H      -2.296216      3.158670     -1.055486
  H      -2.208779      3.062049      0.689255
  H       0.249548      4.287193     -0.029355
  H       1.538867      2.965907     -0.153891
39
Coordinates from ORCA-job ./output/beta_gurjunene/beta_gurjunene E -99.907081275850
  C      -3.025270     -1.665028      0.678368
  C      -1.614860     -1.280909      0.246877
  C      -0.609144     -2.043941      1.145463
  C       0.810747     -2.305667      0.601178
  C       1.171804     -1.206599     -0.349247
  C       1.005783      0.191541      0.137346
  C       2.311860     -0.236743     -0.469934
  C       3.479884     -0.322748      0.474064
  C       2.680931      0.209700     -1.858777
  C      -0.219708      0.842254     -0.408186
  C      -1.443964      0.248408      0.311809
  C      -2.562508      1.131058     -0.237160
  C      -1.946625      2.537291     -0.241720
  C      -0.449922      2.317208     -0.275705
  C       0.487486      3.241500     -0.152708
  H      -3.164852     -2.744604      0.631191
  H      -3.782709     -1.206903      0.045149
  H      -3.214217     -1.351404      1.707253
  H      -1.492069     -1.602166     -0.792445
  H      -0.532571     -1.487052      2.082688
  H      -1.053627     -3.003605      1.415894
  H       0.850705     -3.271503      0.093786
  H       1.506894     -2.371398      1.438684
  H       0.699059     -1.349852     -1.314663
  H       1.075122      0.288849      1.217308
  H       4.243253     -0.996383      0.082663
  H       3.935842      0.659238      0.609301
  H       3.182952     -0.686960      1.455810
  H       3.172379      1.183347     -1.830879
  H       1.806726      0.299894     -2.500680
  H       3.366627     -0.500082     -2.323919
  H      -0.323854      0.594935     -1.471623
  H      -1.331965      0.504130      1.374319
  H      -3.480970      1.089973      0.344570
  H      -2.807905      0.814765     -1.254668
  H      -2.292505      3.142549     -1.078966
  H      -2.216566      3.074644      0.668350
  H       0.241763      4.290203     -0.042637
  H       1.535993      2.972060     -0.158158
39
Coordinates from ORCA-job ./output/beta_gurjunene/beta_gurjunene E -99.907121789607
  C      -3.023354     -1.665294      0.679727
  C      -1.613388     -1.280240      0.249050
  C      -0.606837     -2.043882      1.146057
  C       0.810680     -2.307638      0.597441
  C       1.172946     -1.205826     -0.350282
  C       1.006401      0.192252      0.141727
  C       2.310121     -0.234515     -0.467227
  C       3.479228     -0.329064      0.474703
  C       2.679888      0.216928     -1.854231
  C      -0.218212      0.843056     -0.406717
  C      -1.442332      0.249194      0.312431
  C      -2.562622      1.129214     -0.236455
  C      -1.947998      2.536497     -0.245954
  C      -0.450489      2.318610     -0.276010
  C       0.485252      3.244760     -0.156655
  H      -3.160760     -2.745059      0.633497
  H      -3.781068     -1.208800      0.045897
  H      -3.213764     -1.351458      1.708195
  H      -1.489394     -1.600985     -0.790320
  H      -0.525636     -1.486041      2.082258
  H      -1.050999     -3.002756      1.419231
  H       0.842808     -3.270494      0.083846
  H       1.509279     -2.382045      1.431864
  H       0.695611     -1.345839     -1.313592
  H       1.072837      0.286519      1.221739
  H       4.231337     -1.017368      0.087181
  H       3.951039      0.646283      0.601946
  H       3.178498     -0.681693      1.459434
  H       3.175573      1.188169     -1.822478
  H       1.804809      0.313859     -2.493763
  H       3.362023     -0.492832     -2.324300
  H      -0.318657      0.594485     -1.469905
  H      -1.331477      0.505586      1.374764
  H      -3.476929      1.088353      0.351646
  H      -2.813664      0.812120     -1.251984
  H      -2.289105      3.133660     -1.090923
  H      -2.222806      3.081622      0.657620
  H       0.236874      4.293163     -0.049710
  H       1.534284      2.977502     -0.159751
39
Coordinates from ORCA-job ./output/beta_gurjunene/beta_gurjunene E -99.907131190062
  C      -3.022324     -1.665055      0.682361
  C      -1.612843     -1.280046      0.250311
  C      -0.605459     -2.043138      1.146791
  C       0.810946     -2.308246      0.595638
  C       1.173061     -1.205238     -0.350783
  C       1.006358      0.192346      0.142648
  C       2.309313     -0.233693     -0.467184
  C       3.479553     -0.331229      0.473140
  C       2.679645      0.219046     -1.853780
  C      -0.217908      0.843771     -0.406039
  C      -1.442392      0.249513      0.311424
  C      -2.562856      1.127988     -0.239360
  C      -1.948969      2.535715     -0.250523
  C      -0.450997      2.319057     -0.274667
  C       0.484042      3.245243     -0.150433
  H      -3.159132     -2.744980      0.637672
  H      -3.781032     -1.209531      0.049007
  H      -3.212333     -1.350421      1.710744
  H      -1.489331     -1.601711     -0.788950
  H      -0.522582     -1.484901      2.082739
  H      -1.049966     -3.001527      1.421084
  H       0.840082     -3.270425      0.080600
  H       1.510895     -2.385227      1.428734
  H       0.693576     -1.344434     -1.313218
  H       1.072088      0.286649      1.222777
  H       4.225247     -1.028317      0.088707
  H       3.960024      0.640704      0.593758
  H       3.177773     -0.676062      1.460403
  H       3.176726      1.189564     -1.821103
  H       1.804506      0.318091     -2.493014
  H       3.360856     -0.490777     -2.325098
  H      -0.316608      0.595911     -1.469638
  H      -1.332962      0.507776      1.373571
  H      -3.476613      1.087173      0.349672
  H      -2.814697      0.809979     -1.254335
  H      -2.285486      3.129229     -1.100025
  H      -2.228311      3.085190      0.648947
  H       0.234880      4.293442     -0.042936
  H       1.533225      2.978574     -0.149645
39
Coordinates from ORCA-job ./output/beta_gurjunene/beta_gurjunene E -99.907135141633
  C      -3.021857     -1.664622      0.684758
  C      -1.612750     -1.280113      0.250963
  C      -0.604673     -2.042630      1.147219
  C       0.811268     -2.308073      0.594952
  C       1.173037     -1.204588     -0.351055
  C       1.006506      0.192656      0.142530
  C       2.309198     -0.233285     -0.468027
  C       3.480386     -0.332221      0.471101
  C       2.679687      0.219550     -1.854670
  C      -0.217861      0.844289     -0.405749
  C      -1.442827      0.249531      0.310350
  C      -2.563209      1.127193     -0.242006
  C      -1.949697      2.535115     -0.255287
  C      -0.451522      2.319098     -0.273120
  C       0.482967      3.244878     -0.141608
  H      -3.158865     -2.744615      0.641290
  H      -3.781487     -1.209470      0.052176
  H      -3.210814     -1.349265      1.713184
  H      -1.490258     -1.602778     -0.788183
  H      -0.521370     -1.484365      2.083151
  H      -1.049425     -3.000900      1.421743
  H       0.839547     -3.270285      0.079945
  H       1.511744     -2.385458      1.427681
  H       0.692616     -1.343869     -1.313139
  H       1.072423      0.288059      1.222644
  H       4.221416     -1.035754      0.089197
  H       3.966813      0.637440      0.586002
  H       3.178405     -0.670921      1.460517
  H       3.176948      1.190008     -1.821966
  H       1.804711      0.318881     -2.494203
  H       3.360956     -0.490304     -2.325928
  H      -0.315720      0.597587     -1.469848
  H      -1.334398      0.509288      1.372363
  H      -3.476928      1.086964      0.347223
  H      -2.815474      0.807713     -1.256438
  H      -2.282003      3.125311     -1.108875
  H      -2.233114      3.088737      0.640366
  H       0.233440      4.292832     -0.032385
  H       1.532181      2.978385     -0.136868
39
Coordinates from ORCA-job ./output/beta_gurjunene/beta_gurjunene E -99.907136838664
  C      -3.021667     -1.664208      0.686450
  C      -1.612813     -1.280179      0.251257
  C      -0.604273     -2.042255      1.147380
  C       0.811424     -2.307762      0.594676
  C       1.172917     -1.204177     -0.351289
  C       1.006709      0.192907      0.142072
  C       2.309355     -0.233221     -0.469023
  C       3.480968     -0.332528      0.469571
  C       2.679605      0.219460     -1.855793
  C      -0.217823      0.844474     -0.405801
  C      -1.443069      0.249489      0.309795
  C      -2.563376      1.126824     -0.243426
  C      -1.949927      2.534811     -0.259475
  C      -0.451765      2.318891     -0.271977
  C       0.482302      3.244168     -0.133877
  H      -3.159087     -2.744205      0.643671
  H      -3.781867     -1.209152      0.054453
  H      -3.209598     -1.348338      1.714940
  H      -1.491262     -1.603517     -0.787802
  H      -0.520802     -1.483724      2.083139
  H      -1.049088     -3.000443      1.422199
  H       0.839670     -3.270079      0.079855
  H       1.512024     -2.385004      1.427371
  H       0.692287     -1.343630     -1.313304
  H       1.073073      0.289206      1.222134
  H       4.219792     -1.039096      0.088898
  H       3.970013      0.636178      0.581401
  H       3.179141     -0.668164      1.460105
  H       3.176128      1.190320     -1.823273
  H       1.804793      0.317965     -2.495713
  H       3.361533     -0.490131     -2.326554
  H      -0.315678      0.598616     -1.470180
  H      -1.334971      0.509942      1.371717
  H      -3.476952      1.087630      0.346124
  H      -2.816290      0.805553     -1.257159
  H      -2.279149      3.121653     -1.116617
  H      -2.236372      3.092255      0.632831
  H       0.232614      4.291903     -0.022870
  H       1.531476      2.977570     -0.125905
39
Coordinates from ORCA-job ./output/beta_gurjunene/beta_gurjunene E -99.907138009239
  C      -3.021531     -1.663673      0.687635
  C      -1.612825     -1.280095      0.251423
  C      -0.603997     -2.042044      1.147344
  C       0.811586     -2.307512      0.594530
  C       1.172806     -1.203977     -0.351553
  C       1.006962      0.193106      0.141543
  C       2.309582     -0.233354     -0.469965
  C       3.481315     -0.332725      0.468451
  C       2.679430      0.219095     -1.856861
  C      -0.217700      0.844582     -0.406061
  C      -1.443010      0.249552      0.309685
  C      -2.563460      1.126639     -0.243829
  C      -1.949975      2.534693     -0.263390
  C      -0.451873      2.318730     -0.271140
  C       0.481726      3.243620     -0.127221
  H      -3.159463     -2.743622      0.645077
  H      -3.782018     -1.208451      0.056095
  H      -3.208535     -1.347547      1.716210
  H      -1.492055     -1.603780     -0.787616
  H      -0.520424     -1.483277      2.082943
  H      -1.048786     -3.000186      1.422378
  H       0.840109     -3.269898      0.079842
  H       1.512177     -2.384463      1.427280
  H       0.692162     -1.343504     -1.313556
  H       1.073753      0.289916      1.221529
  H       4.219371     -1.040300      0.088115
  H       3.971155      0.635712      0.579062
  H       3.179695     -0.667274      1.459402
  H       3.174738      1.190577     -1.824604
  H       1.804733      0.316205     -2.497139
  H       3.362301     -0.490018     -2.326997
  H      -0.316019      0.599217     -1.470533
  H      -1.334758      0.510167      1.371543
  H      -3.476555      1.088732      0.346568
  H      -2.817546      0.803325     -1.256639
  H      -2.276719      3.117625     -1.124164
  H      -2.239005      3.096189      0.625510
  H       0.231803      4.291112     -0.014543
  H       1.530845      2.976905     -0.116354
