! wB97X-3c OPT FREQ TightSCF
%pal
  nprocs 40
end
* xyz 0 1
C     -3.837082    -1.366796     1.587311
C     -3.105955    -0.470926     0.621009
C     -2.001463    -0.950538     0.007482
C     -1.147023    -0.159365    -0.950918
C     -0.058246     0.611679    -0.197426
C      0.785416     1.423749    -1.160246
C      1.916910     0.946253    -1.725845
C      2.503773    -0.406650    -1.433877
O      3.049455    -0.418757    -0.118910
C      3.639926    -1.554474     0.441400
O      3.743804    -2.621388    -0.222911
C      4.194970    -1.487591     1.823306
C      0.310321     2.798029    -1.554437
C     -3.630552     0.920342     0.352670
H     -4.173652    -2.287354     1.064889
H     -3.160428    -1.649673     2.421395
H     -4.729304    -0.866763     2.018180
H     -1.675578    -1.964069     0.229088
H     -0.667860    -0.871881    -1.655510
H     -1.765099     0.532261    -1.561730
H      0.564392    -0.092359     0.393086
H     -0.526297     1.297070     0.540376
H      2.453388     1.571499    -2.435529
H      3.314432    -0.612548    -2.165694
H      1.730044    -1.196285    -1.540801
H      3.688975    -0.682361     2.396118
H      4.034563    -2.454114     2.346012
H      5.282553    -1.272375     1.774961
H     -0.650346     3.050684    -1.057741
H      0.154230     2.842337    -2.653226
H      1.067844     3.555585    -1.262085
H     -4.525757     1.143094     0.969488
H     -3.922580     1.015557    -0.714014
H     -2.857776     1.678130     0.594261
*
