34
Coordinates from ORCA-job ./output/geranyl_acetate/geranyl_acetate E -112.541381011679
  C          -4.46596103232100     -1.15419777285792      1.26142202043331
  C          -3.55337088098586     -0.37622908916266      0.36429122353588
  C          -2.30339583268721     -0.77447628192212      0.14751282793342
  C          -1.26724913301163     -0.11041763479304     -0.70157753803328
  C          -0.24744055853137      0.66320383661528      0.13534486287531
  C           0.79277714023123      1.34607468832065     -0.70732756114360
  C           1.93898905472065      0.78236535753612     -1.07430728036947
  C           2.38202827240686     -0.59436451123621     -0.73909964300207
  O           3.66082322712642     -0.50507611198550     -0.09379412213275
  C           4.22888648405382     -1.66305444879736      0.24862279198486
  O           3.71782086302444     -2.73212426534160      0.04960318686611
  C           5.55989803694967     -1.45106321588352      0.89600141920002
  C           0.44023227396530      2.72909418396231     -1.15808157591529
  C          -4.17175316280407      0.84663594831503     -0.23812994807038
  H          -3.97308829730592     -2.03089320441432      1.67571321892083
  H          -4.81691761376013     -0.53513824354184      2.08870084328438
  H          -5.35165662698366     -1.48596371070999      0.71689280636275
  H          -1.97023992881667     -1.67162197120127      0.66150051212994
  H          -0.73755849819670     -0.87077629606051     -1.27943133513838
  H          -1.72287634472675      0.55596328406488     -1.43255521819036
  H           0.21360362268088     -0.01312976953243      0.85471870659714
  H          -0.77879424220059      1.41329749065576      0.72417819109252
  H           2.62447272095112      1.34678465967024     -1.69692879603591
  H           2.49962845656901     -1.20171725350282     -1.63695908716613
  H           1.69246530584410     -1.11702328670836     -0.08226317230531
  H           5.45700188327055     -0.77614182419414      1.74194306996301
  H           5.95971352666844     -2.40523405965338      1.21961938983430
  H           6.23844846626164     -0.98567209138043      0.18458663601246
  H          -0.51314230428358      2.73442652792130     -1.68819904768100
  H           1.19789388788364      3.14756626192370     -1.81662647661892
  H           0.32774114237388      3.38980760712301     -0.29743603212174
  H          -4.54483331403265      1.50476884778782      0.54828484853727
  H          -5.03124678777002      0.57589912324843     -0.85384975438925
  H          -3.48290180656386      1.41842922573489     -0.85223796724963
