29
Coordinates from ORCA-job ./output/isomenthone/isomenthone E -83.922332675615
  C          -3.61964463250181      0.12641165839473     -0.46914132876308
  C          -2.10445645841946      0.07382817904696     -0.44541860670918
  C          -1.49464598102032      1.26414174384989      0.27954335324744
  C           0.03031501851770      1.29807189325748      0.14692641893195
  C           0.65998870007279     -0.09062519668825     -0.07116970894554
  C          -0.17404453264714     -1.08218048932034      0.70535832721094
  O           0.23520122334484     -1.70791294072692      1.65175155880967
  C          -1.60490218033672     -1.19546246910208      0.23984169603587
  C           2.15051173394475     -0.16012531271092      0.24294643845212
  C           2.73811079294688     -1.49190878483876     -0.19855461241985
  C           2.91907310499057      0.98150054116029     -0.40518525922264
  H          -4.03890455040591     -0.75389387530208     -0.95639838340581
  H          -4.02069121593685      0.16766276599664      0.54470930523643
  H          -3.97436322763050      1.00660765075531     -1.00477601545187
  H          -1.75045273616427      0.08400758755373     -1.48078465201710
  H          -1.77641872357380      1.19486657333796      1.33431910093969
  H          -1.92028289018864      2.19820367236830     -0.08856916685134
  H           0.46555283535838      1.74553606664525      1.04169991510717
  H           0.31219121838734      1.93721053273160     -0.68880525375447
  H           0.51798160469054     -0.34756053457364     -1.12789058443143
  H          -2.21098308620013     -1.43187442531053      1.11540333052893
  H          -1.66726331329615     -2.05902828384356     -0.42702031435314
  H           2.25649179124237     -0.08374312992205      1.32806312102228
  H           2.23461604084010     -2.33060487289673      0.27545924226622
  H           3.79522204507934     -1.54958614262376      0.05972513865525
  H           2.65905148031404     -1.60604635122286     -1.28185253742160
  H           3.98532976024920      0.88028063862781     -0.20455076386619
  H           2.60889655911460      1.95733555806559     -0.03654365483155
  H           2.78852161922828      0.97488774729094     -1.48956510399919
