26
Coordinates from ORCA-job ./output/limonene/limonene E -66.603501270334
  C           2.45270553918012      1.80035369587369     -0.59515984778516
  C           1.51861932166606      0.63964482087228     -0.48023197511941
  C           0.75494088573905      0.23854438472805     -1.48913911523603
  C          -0.20846531624016     -0.90439577474029     -1.39961063714647
  C          -0.61303958299199     -1.20328763743018      0.04269355922125
  C           0.66407594570853     -1.32365936132011      0.86410477831025
  C           1.48493535972724     -0.04230740068544      0.85503078804708
  C          -1.63336635879689     -0.22979088572407      0.59901141800237
  C          -1.61864969653376      0.20622286209973      1.85198601913960
  C          -2.74847423312780      0.17065840713071     -0.31930212071032
  H           2.21072260122629      2.56395612612660      0.14609947992070
  H           3.48245234356600      1.49152626042930     -0.40836136645592
  H           2.40630483032291      2.25721029572358     -1.58156222121114
  H           0.82824793929407      0.75422915660702     -2.44074498802678
  H           0.24928669542353     -1.80152707897637     -1.82652796725186
  H          -1.08059804998461     -0.70438501024662     -2.01978035957279
  H          -1.11073857724708     -2.17912245329147      0.04289750427170
  H           0.44861888608344     -1.63064901761433      1.88726841698570
  H           1.25915096527395     -2.12781767627927      0.42637195946687
  H           2.50961187747301     -0.26415580194485      1.16418030859302
  H           1.10523739901143      0.67107098589816      1.58995449156595
  H          -2.40517638513227      0.85128609656039      2.22155733841719
  H          -0.84234000463466     -0.05808192149084      2.55493734561024
  H          -3.53452488192390      0.68708556517740      0.22667569555643
  H          -2.39106853457907      0.83707863069710     -1.10400202974255
  H          -3.18846696850341     -0.69968726818016     -0.80834547484992
