18
Coordinates from ORCA-job ./output/_e_cinnamaldehyde/_e_cinnamaldehyde E -72.099339054179
  C          -2.87194529762370     -0.11104243683725      0.35864559985640
  C          -2.44390867641067      0.89985739075941     -0.48168959191618
  C          -1.09783547997124      1.03322589730692     -0.76870028536808
  C          -0.16108164394361      0.16197417221887     -0.22431802662307
  C          -0.60541112018324     -0.85135260452222      0.62152992703393
  C          -1.94765378452217     -0.98566401239880      0.90942026094636
  C           1.24927254661252      0.34593243244248     -0.56244923977711
  C           2.28379341848203     -0.39349053841816     -0.16684470151862
  C           3.63579033535665     -0.05761964380630     -0.60933562850372
  O           4.62175655209875     -0.67501491340490     -0.29718120262438
  H          -3.92312590018865     -0.21959042631319      0.58664446737431
  H          -3.15795992698626      1.58626768638497     -0.91458143527136
  H          -0.76520115636628      1.82536492364592     -1.42651990331278
  H           0.10120513878353     -1.54030158393240      1.06070930584453
  H          -2.27807045010555     -1.77670743537471      1.56800012151633
  H           1.45930325253992      1.18831221535966     -1.21490033452318
  H           2.19000019727488     -1.25555191238210      0.47978350979214
  H           3.71107299515307      0.82540078927179     -1.27056084292553
