! wB97X-3c OPT FREQ TightSCF
%pal
  nprocs 40
end
* xyz 0 1
C     -2.872894    -0.102124     0.425060
C     -2.458616     0.962899    -0.376966
C     -1.114812     1.083455    -0.743701
C     -0.166274     0.143662    -0.303444
C     -0.599223    -0.936485     0.494078
C     -1.945054    -1.051988     0.856965
C      1.246277     0.309385    -0.727226
C      2.283940    -0.265440    -0.107313
C      3.657198    -0.046395    -0.575437
O      4.621017    -0.583234     0.030286
H     -3.913848    -0.194918     0.706667
H     -3.179332     1.695779    -0.716117
H     -0.813590     1.917239    -1.366384
H      0.085166    -1.706136     0.821602
H     -2.270131    -1.883846     1.468541
H      1.443896     0.968303    -1.566037
H      2.141405    -0.884325     0.767678
H      3.854876     0.574169    -1.440600
*
