27
Coordinates from ORCA-job ./output/camphor/camphor E -82.704455863921
  C           1.44087458550114     -1.26666029842100     -0.68370812422872
  C           0.77801690648394     -0.10346396977100      0.03717156919016
  C           0.44118375965897      1.08877934393540     -0.88913996847354
  C          -0.57656251813437      0.48311489299595     -1.85943496678106
  C          -1.38625953411617     -0.46754607778801     -0.95440590016054
  C          -0.70097340452982     -0.36005065255284      0.42661788674428
  C          -1.10192339241186      1.02663327155516      0.89932117958507
  O          -1.87730075295378      1.29232231536603      1.77753764677768
  C          -0.34126860078304      2.01796780463867      0.03602783060988
  C          -1.02723249657408     -1.46403681200080      1.39257122095653
  C           1.65415323365843      0.26701999452780      1.22785987550136
  H           1.58915261977836     -2.10374401771889     -0.00186904549849
  H           2.42427979302959     -0.96678415322164     -1.04815797318105
  H           0.87297378294258     -1.63255837963938     -1.53414500209094
  H           1.30091357045497      1.55419806838088     -1.36939032310120
  H          -0.08917148980990     -0.05367663292100     -2.67078737221009
  H          -1.19741506546981      1.25180065453461     -2.31749256709816
  H          -2.44138449464689     -0.20192084547340     -0.89384745626989
  H          -1.34344772003282     -1.49836175363445     -1.30320149911727
  H          -1.03212814330238      2.68235862502345     -0.48117662381945
  H           0.29004136656689      2.63802803916480      0.67006601449984
  H          -2.09608447890572     -1.48138463992741      1.59984762953669
  H          -0.51798985741768     -1.32144361680131      2.34438744133796
  H          -0.74173166044116     -2.43424932703659      0.98762325733592
  H           1.20629876166506      1.00845199960645      1.88617938380455
  H           1.86013850544844     -0.61433484512954      1.83431916243887
  H           2.61284472434112      0.65954201230807      0.88722872371159
