! wB97X-3c OPT FREQ TightSCF
%pal
  nprocs 40
end
* xyz 0 1
C      1.453772    -1.298021    -0.690465
C      0.761325    -0.112602     0.046909
C      0.434189     1.089945    -0.870906
C     -0.605550     0.492374    -1.858980
C     -1.410189    -0.486028    -0.967146
C     -0.722973    -0.332129     0.410949
C     -1.103062     1.051031     0.878168
O     -1.945533     1.317796     1.721161
C     -0.350939     2.055176     0.060550
C     -1.023250    -1.457490     1.407657
C      1.680469     0.254133     1.253327
H      1.610304    -2.146060     0.009506
H      2.447337    -0.973716    -1.067176
H      0.892360    -1.700057    -1.553491
H      1.311524     1.557287    -1.367419
H     -0.104140    -0.038287    -2.695999
H     -1.263038     1.273885    -2.299005
H     -2.485657    -0.201422    -0.925053
H     -1.343330    -1.527547    -1.348577
H     -1.039990     2.726228    -0.496472
H      0.329116     2.664515     0.692158
H     -2.117473    -1.523403     1.585771
H     -0.516937    -1.263811     2.376575
H     -0.672703    -2.431480     1.007027
H      1.233083     0.981874     1.958997
H      1.914856    -0.653099     1.850197
H      2.636427     0.680909     0.881739
*
