29
Coordinates from ORCA-job ./output/_z_rose_oxide/_z_rose_oxide E -83.888337072087
  C          -2.90982655038173     -1.51970529289195     -0.89377913821598
  C          -2.11986780921063     -0.23869235013600     -0.71281134690167
  C          -2.40921559419422      0.42792536887919      0.62281739196307
  C          -1.53087002039321      1.64513579432598      0.81594237493241
  O          -0.16532064790797      1.32587720759239      0.71054987644071
  C           0.16883493077967      0.79710560843170     -0.55867099778806
  C          -0.62210727937159     -0.47478701268907     -0.83425431184833
  C           1.65003988508429      0.59021356792276     -0.68156566358032
  C           2.48260983974466      0.04230133742726      0.19731915583863
  C           3.94051882030216     -0.08979730498568     -0.12154992091001
  C           2.09676846793709     -0.47963501519268      1.54540690296572
  H          -2.70862450057292     -1.97430388777153     -1.86393818592637
  H          -3.98232758460668     -1.33630450940373     -0.82536689770907
  H          -2.64669179206439     -2.24753762045065     -0.12462981656726
  H          -2.41261517985404      0.46137288923714     -1.50428684120933
  H          -2.21912715584223     -0.28078897453383      1.43360640523008
  H          -3.45928567146460      0.72059934613962      0.68804459312454
  H          -1.66852046145761      2.08175929156691      1.80351987068819
  H          -1.78578461939271      2.41234131274662      0.07213362367129
  H          -0.12176706343248      1.54272916297586     -1.31266091555111
  H          -0.37083343900267     -0.84319292732593     -1.83062895457659
  H          -0.30684953868829     -1.24233182731104     -0.12277189189724
  H           2.06634344154978      0.91357863574598     -1.62926594109823
  H           4.17653100476813      0.28997941520145     -1.11314288442755
  H           4.25240484906629     -1.13417200475513     -0.06950325238875
  H           4.54275074010797      0.45656186848385      0.60613688395948
  H           1.03834176715610     -0.37466697449604      1.75010666942831
  H           2.38132406509883     -1.52992464002427      1.63109130529244
  H           2.64317009624299      0.05836253529085      2.32215090706099
