29
Coordinates from ORCA-job ./output/_z_rose_oxide/_z_rose_oxide E -83.873644190171
  C      -2.900673     -1.541685     -0.814697
  C      -2.107005     -0.236168     -0.701197
  C      -2.381626      0.457692      0.640988
  C      -1.481041      1.690135      0.782867
  O      -0.113948      1.330910      0.705022
  C       0.188064      0.803408     -0.576118
  C      -0.599711     -0.492993     -0.856458
  C       1.676941      0.563967     -0.718811
  C       2.493691      0.003693      0.206345
  C       3.943877     -0.194706     -0.156853
  C       2.023195     -0.397511      1.586238
  H      -2.710502     -2.018573     -1.799817
  H      -3.988927     -1.334160     -0.732937
  H      -2.609598     -2.251214     -0.010426
  H      -2.438027      0.438668     -1.522906
  H      -2.176443     -0.240014      1.483162
  H      -3.446813      0.771507      0.694483
  H      -1.665584      2.148817      1.776967
  H      -1.738946      2.457920      0.018060
  H      -0.081495      1.549063     -1.361061
  H      -0.389428     -0.837562     -1.893118
  H      -0.285776     -1.297158     -0.159731
  H       2.112099      0.860774     -1.670740
  H       4.404317      0.782999     -0.413520
  H       4.021096     -0.873059     -1.032905
  H       4.523331     -0.639734      0.678559
  H       1.164336     -1.093068      1.528970
  H       2.825493     -0.915210      2.151650
  H       1.739106      0.503265      2.167983
29
Coordinates from ORCA-job ./output/_z_rose_oxide/_z_rose_oxide E -83.881341707675
  C      -2.914048     -1.525373     -0.829591
  C      -2.114277     -0.236579     -0.699807
  C      -2.381372      0.457543      0.629246
  C      -1.484455      1.673379      0.782456
  O      -0.126469      1.317831      0.694648
  C       0.188190      0.780173     -0.572065
  C      -0.616149     -0.489759     -0.847463
  C       1.669833      0.541878     -0.701662
  C       2.488451      0.008472      0.208840
  C       3.941372     -0.177647     -0.155193
  C       2.046638     -0.392314      1.590005
  H      -2.728118     -1.997724     -1.795024
  H      -3.983162     -1.323665     -0.752160
  H      -2.639447     -2.229824     -0.043713
  H      -2.427776      0.438004     -1.504642
  H      -2.182537     -0.231736      1.453335
  H      -3.427668      0.765463      0.690666
  H      -1.641707      2.131353      1.759097
  H      -1.728929      2.427020      0.023252
  H      -0.083016      1.517533     -1.340966
  H      -0.400004     -0.833913     -1.860508
  H      -0.307464     -1.277992     -0.159067
  H       2.096018      0.816131     -1.660080
  H       4.393808      0.777194     -0.420123
  H       4.036074     -0.850542     -1.006667
  H       4.514469     -0.598875      0.668022
  H       1.197607     -1.071017      1.556811
  H       2.848592     -0.899668      2.125339
  H       1.765551      0.484658      2.167013
29
Coordinates from ORCA-job ./output/_z_rose_oxide/_z_rose_oxide E -83.882099676605
  C      -2.931931     -1.510101     -0.856458
  C      -2.121495     -0.235501     -0.703431
  C      -2.380052      0.445943      0.630541
  C      -1.478337      1.650433      0.799360
  O      -0.123129      1.297497      0.689543
  C       0.188787      0.760636     -0.577728
  C      -0.628482     -0.495694     -0.851479
  C       1.664433      0.517094     -0.704465
  C       2.489116      0.015000      0.208727
  C       3.944226     -0.170847     -0.151522
  C       2.064089     -0.358177      1.601553
  H      -2.750115     -1.974353     -1.824734
  H      -3.998696     -1.305588     -0.776733
  H      -2.666955     -2.229291     -0.082012
  H      -2.422949      0.456120     -1.497069
  H      -2.183244     -0.254926      1.444304
  H      -3.423579      0.755285      0.704984
  H      -1.610335      2.098984      1.781640
  H      -1.723217      2.413278      0.049896
  H      -0.086175      1.505132     -1.337479
  H      -0.408051     -0.846143     -1.860168
  H      -0.321416     -1.281407     -0.159774
  H       2.080440      0.759972     -1.676323
  H       4.395448      0.774321     -0.445715
  H       4.050573     -0.865773     -0.982070
  H       4.518867     -0.563398      0.682752
  H       1.193482     -1.008523      1.596013
  H       2.862214     -0.878833      2.125038
  H       1.806486      0.528862      2.172808
29
Coordinates from ORCA-job ./output/_z_rose_oxide/_z_rose_oxide E -83.882541674043
  C      -2.952522     -1.494041     -0.892835
  C      -2.130290     -0.234496     -0.711519
  C      -2.383066      0.427814      0.632109
  C      -1.475781      1.622329      0.820664
  O      -0.121334      1.273359      0.690953
  C       0.187406      0.741912     -0.580490
  C      -0.641286     -0.504080     -0.858107
  C       1.658014      0.490882     -0.706638
  C       2.494164      0.024381      0.212074
  C       3.947526     -0.169559     -0.150994
  C       2.092833     -0.307997      1.622227
  H      -2.773647     -1.946781     -1.867544
  H      -4.018916     -1.285696     -0.810849
  H      -2.698392     -2.232727     -0.131690
  H      -2.417847      0.478817     -1.492547
  H      -2.190540     -0.289736      1.434078
  H      -3.425525      0.739193      0.719066
  H      -1.585943      2.056680      1.811982
  H      -1.722801      2.399327      0.084450
  H      -0.089138      1.497713     -1.330176
  H      -0.414512     -0.861741     -1.863778
  H      -0.336924     -1.289520     -0.162353
  H       2.059684      0.693973     -1.694292
  H       4.397476      0.761348     -0.491626
  H       4.058333     -0.899345     -0.951774
  H       4.529359     -0.522389      0.696591
  H       1.174960     -0.889798      1.656408
  H       2.871850     -0.877783      2.122606
  H       1.906862      0.597963      2.194003
29
Coordinates from ORCA-job ./output/_z_rose_oxide/_z_rose_oxide E -83.882960708776
  C      -2.975154     -1.477431     -0.936248
  C      -2.140149     -0.233900     -0.723148
  C      -2.389126      0.403536      0.633174
  C      -1.474962      1.587474      0.845957
  O      -0.120625      1.240979      0.700275
  C       0.184397      0.721718     -0.578599
  C      -0.654500     -0.514714     -0.867066
  C       1.650293      0.460130     -0.706917
  C       2.500933      0.033476      0.217317
  C       3.950611     -0.169984     -0.151922
  C       2.128664     -0.244047      1.646774
  H      -2.798918     -1.914500     -1.919252
  H      -4.041057     -1.264076     -0.851744
  H      -2.732839     -2.238110     -0.191517
  H      -2.412654      0.503073     -1.488928
  H      -2.204608     -0.333960      1.420428
  H      -3.430106      0.718959      0.730575
  H      -1.568734      2.002492      1.847572
  H      -1.723063      2.381722      0.126992
  H      -0.089850      1.492020     -1.315837
  H      -0.421089     -0.876842     -1.870526
  H      -0.354421     -1.302814     -0.169981
  H       2.034952      0.619114     -1.709931
  H       4.392192      0.738788     -0.559457
  H       4.064109     -0.948813     -0.906177
  H       4.545799     -0.462179      0.710238
  H       1.142482     -0.693494      1.733581
  H       2.853559     -0.908135      2.111700
  H       2.083869      0.679522      2.222666
29
Coordinates from ORCA-job ./output/_z_rose_oxide/_z_rose_oxide E -83.883519875563
  C      -2.991336     -1.469179     -0.966142
  C      -2.149050     -0.234901     -0.734117
  C      -2.404824      0.391981      0.626655
  C      -1.486911      1.570314      0.855472
  O      -0.131014      1.223940      0.711741
  C       0.178188      0.708689     -0.568989
  C      -0.664193     -0.524482     -0.864930
  C       1.642321      0.439171     -0.698147
  C       2.509159      0.040007      0.225027
  C       3.955562     -0.157017     -0.154798
  C       2.170046     -0.218729      1.664671
  H      -2.811408     -1.900094     -1.951937
  H      -4.057530     -1.251918     -0.886632
  H      -2.760818     -2.240915     -0.227804
  H      -2.407004      0.513490     -1.494893
  H      -2.233375     -0.355600      1.408432
  H      -3.445145      0.712703      0.721138
  H      -1.579305      1.975864      1.861710
  H      -1.731675      2.373028      0.143842
  H      -0.090541      1.486073     -1.301880
  H      -0.420040     -0.896435     -1.862982
  H      -0.370597     -1.310025     -0.160380
  H       2.012643      0.573193     -1.710604
  H       4.374640      0.730986     -0.628388
  H       4.077250     -0.981142     -0.859402
  H       4.569404     -0.380519      0.715978
  H       1.128841     -0.494907      1.802798
  H       2.804195     -1.005513      2.069626
  H       2.312520      0.681939      2.264934
29
Coordinates from ORCA-job ./output/_z_rose_oxide/_z_rose_oxide E -83.884291565789
  C      -2.994922     -1.474153     -0.977412
  C      -2.154379     -0.237589     -0.742893
  C      -2.426705      0.393573      0.614256
  C      -1.509655      1.573620      0.849157
  O      -0.150932      1.224481      0.726278
  C       0.169349      0.709123     -0.552164
  C      -0.667003     -0.528805     -0.854254
  C       1.635883      0.438882     -0.682101
  C       2.516104      0.045585      0.234301
  C       3.958358     -0.141235     -0.160026
  C       2.208084     -0.229453      1.674742
  H      -2.805211     -1.907934     -1.960727
  H      -4.062187     -1.255942     -0.908997
  H      -2.771407     -2.243642     -0.234163
  H      -2.404263      0.507303     -1.509915
  H      -2.269762     -0.352628      1.400402
  H      -3.467285      0.719625      0.691973
  H      -1.619495      1.980281      1.853946
  H      -1.746934      2.375140      0.134036
  H      -0.091816      1.485880     -1.288390
  H      -0.411384     -0.908692     -1.846716
  H      -0.380242     -1.309510     -0.141216
  H       1.998879      0.576555     -1.696778
  H       4.348037      0.726300     -0.693395
  H       4.086428     -1.005073     -0.815231
  H       4.591354     -0.297892      0.712902
  H       1.146111     -0.335198      1.865577
  H       2.730783     -1.128535      2.003079
  H       2.544217      0.599935      2.303730
29
Coordinates from ORCA-job ./output/_z_rose_oxide/_z_rose_oxide E -83.885046988710
  C      -2.975535     -1.496129     -0.966580
  C      -2.150715     -0.242403     -0.746360
  C      -2.445843      0.402525      0.601058
  C      -1.536955      1.592756      0.832886
  O      -0.175767      1.240777      0.744294
  C       0.159781      0.731144     -0.531059
  C      -0.657070     -0.519988     -0.840435
  C       1.633001      0.473724     -0.662917
  C       2.517061      0.059812      0.243016
  C       3.952895     -0.137762     -0.166734
  C       2.223791     -0.261028      1.672602
  H      -2.771994     -1.936638     -1.943917
  H      -4.044398     -1.283945     -0.910552
  H      -2.747212     -2.249853     -0.210165
  H      -2.406540      0.483806     -1.527605
  H      -2.297739     -0.331499      1.398358
  H      -3.487523      0.729611      0.652184
  H      -1.682246      2.007600      1.830035
  H      -1.764556      2.384350      0.106133
  H      -0.095917      1.501429     -1.274020
  H      -0.393649     -0.895815     -1.831611
  H      -0.372118     -1.297261     -0.124949
  H       1.998469      0.641321     -1.671672
  H       4.315430      0.695475     -0.767766
  H       4.073420     -1.048315     -0.756318
  H       4.603460     -0.223110      0.703534
  H       1.168268     -0.218498      1.910576
  H       2.620409     -1.250467      1.912000
  H       2.739793      0.448383      2.325982
29
Coordinates from ORCA-job ./output/_z_rose_oxide/_z_rose_oxide E -83.885530211112
  C      -2.959215     -1.507571     -0.962620
  C      -2.145871     -0.245288     -0.746005
  C      -2.449088      0.402224      0.597904
  C      -1.546264      1.596330      0.831546
  O      -0.185021      1.246757      0.750561
  C       0.156688      0.745498     -0.525053
  C      -0.649790     -0.510224     -0.837750
  C       1.631841      0.499271     -0.656382
  C       2.512837      0.073720      0.244426
  C       3.946910     -0.136892     -0.166537
  C       2.217622     -0.272757      1.666598
  H      -2.750761     -1.947311     -1.938550
  H      -4.028882     -1.302424     -0.908642
  H      -2.724194     -2.255379     -0.203545
  H      -2.408043      0.473814     -1.530720
  H      -2.299966     -0.327678      1.397729
  H      -3.491678      0.725567      0.641854
  H      -1.701504      2.012328      1.826060
  H      -1.770882      2.384838      0.101502
  H      -0.102150      1.514829     -1.266998
  H      -0.384172     -0.879807     -1.830052
  H      -0.360665     -1.286228     -0.123449
  H       2.000209      0.681479     -1.661360
  H       4.283148      0.637174     -0.854114
  H       4.074541     -1.101549     -0.659661
  H       4.609597     -0.122241      0.698012
  H       1.182473     -0.112757      1.939193
  H       2.495713     -1.313873      1.847944
  H       2.846569      0.328153      2.328107
29
Coordinates from ORCA-job ./output/_z_rose_oxide/_z_rose_oxide E -83.886451208022
  C      -2.902650     -1.539927     -0.916620
  C      -2.122964     -0.249516     -0.730714
  C      -2.439065      0.417614      0.598935
  C      -1.555432      1.628788      0.815401
  O      -0.194384      1.287163      0.750210
  C       0.158589      0.792923     -0.521454
  C      -0.620641     -0.478108     -0.829674
  C       1.640415      0.578848     -0.648593
  C       2.497514      0.093210      0.240069
  C       3.930424     -0.142437     -0.165168
  C       2.154456     -0.349094      1.626422
  H      -2.685816     -1.986755     -1.885590
  H      -3.974179     -1.354156     -0.863593
  H      -2.641998     -2.260393     -0.142768
  H      -2.412925      0.439149     -1.530328
  H      -2.271897     -0.289372      1.412958
  H      -3.485795      0.723377      0.629738
  H      -1.734599      2.059791      1.797886
  H      -1.778545      2.399323      0.068329
  H      -0.113785      1.549021     -1.269665
  H      -0.361597     -0.827220     -1.829415
  H      -0.315970     -1.251667     -0.122638
  H       2.032158      0.825567     -1.629629
  H       4.219078      0.504937     -0.988389
  H       4.069404     -1.178140     -0.472549
  H       4.608393      0.044460      0.664741
  H       1.122036     -0.155182      1.886666
  H       2.355964     -1.418677      1.721842
  H       2.823815      0.136475      2.333588
29
Coordinates from ORCA-job ./output/_z_rose_oxide/_z_rose_oxide E -83.887358241801
  C      -2.883317     -1.545337     -0.900413
  C      -2.114552     -0.249650     -0.720845
  C      -2.428580      0.422922      0.604387
  C      -1.553661      1.638811      0.814328
  O      -0.192101      1.308434      0.736431
  C       0.162746      0.807933     -0.532427
  C      -0.612586     -0.465169     -0.829199
  C       1.644236      0.606504     -0.653438
  C       2.487045      0.090748      0.228071
  C       3.927946     -0.126035     -0.150182
  C       2.118150     -0.402376      1.592536
  H      -2.667182     -1.994791     -1.867614
  H      -3.955808     -1.369298     -0.843289
  H      -2.613081     -2.260056     -0.124743
  H      -2.413582      0.433597     -1.522043
  H      -2.246662     -0.277461      1.421464
  H      -3.478353      0.715052      0.643395
  H      -1.721290      2.075444      1.795376
  H      -1.783409      2.404409      0.063236
  H      -0.123362      1.558230     -1.281686
  H      -0.356645     -0.813305     -1.829929
  H      -0.297977     -1.233482     -0.120542
  H       2.048441      0.888733     -1.619451
  H       4.175772      0.376942     -1.079850
  H       4.124659     -1.191090     -0.266866
  H       4.596331      0.241852      0.625680
  H       1.098908     -0.158775      1.861469
  H       2.245783     -1.485965      1.631262
  H       2.812134      0.003180      2.324882
29
Coordinates from ORCA-job ./output/_z_rose_oxide/_z_rose_oxide E -83.888054947182
  C      -2.891875     -1.535120     -0.886625
  C      -2.115847     -0.246079     -0.711137
  C      -2.413788      0.429512      0.615632
  C      -1.539605      1.646695      0.811716
  O      -0.176193      1.327316      0.708508
  C       0.169166      0.803341     -0.557317
  C      -0.617276     -0.468213     -0.833222
  C       1.648286      0.600043     -0.674763
  C       2.481405      0.061581      0.204619
  C       3.937371     -0.092274     -0.123633
  C       2.092375     -0.460882      1.554407
  H      -2.685179     -1.991710     -1.853608
  H      -3.965140     -1.360026     -0.820774
  H      -2.621048     -2.253543     -0.112237
  H      -2.415385      0.443397     -1.509197
  H      -2.217689     -0.270685      1.432359
  H      -3.465782      0.712805      0.676497
  H      -1.677271      2.089510      1.795245
  H      -1.785485      2.410681      0.061124
  H      -0.127739      1.548205     -1.309881
  H      -0.366090     -0.830576     -1.831301
  H      -0.296979     -1.230560     -0.118489
  H       2.061757      0.909637     -1.628474
  H       4.183688      0.341213     -1.089537
  H       4.206132     -1.149192     -0.142627
  H       4.561515      0.380833      0.634525
  H       1.056946     -0.252596      1.793897
  H       2.251695     -1.539607      1.590401
  H       2.728038     -0.023703      2.323890
29
Coordinates from ORCA-job ./output/_z_rose_oxide/_z_rose_oxide E -83.888246706576
  C      -2.885297     -1.538113     -0.867709
  C      -2.111505     -0.244579     -0.705212
  C      -2.411397      0.439655      0.618108
  C      -1.543479      1.665765      0.798894
  O      -0.176333      1.353026      0.702262
  C       0.169290      0.814622     -0.559557
  C      -0.611409     -0.465761     -0.825059
  C       1.652093      0.618745     -0.674436
  C       2.479391      0.051355      0.196754
  C       3.938162     -0.080638     -0.114590
  C       2.078945     -0.514860      1.523850
  H      -2.676642     -2.004101     -1.830683
  H      -3.959802     -1.365317     -0.804107
  H      -2.613755     -2.249343     -0.086141
  H      -2.413332      0.437999     -1.508820
  H      -2.211833     -0.253160      1.440764
  H      -3.465321      0.718455      0.677672
  H      -1.686145      2.116870      1.778972
  H      -1.797115      2.421528      0.042436
  H      -0.128134      1.550209     -1.320907
  H      -0.359026     -0.836322     -1.820247
  H      -0.289962     -1.223373     -0.105774
  H       2.075068      0.964909     -1.611003
  H       4.178075      0.294931     -1.106707
  H       4.240603     -1.127973     -0.058610
  H       4.540564      0.462275      0.615142
  H       1.035745     -0.333492      1.752169
  H       2.262600     -1.591333      1.535718
  H       2.689956     -0.081978      2.316819
29
Coordinates from ORCA-job ./output/_z_rose_oxide/_z_rose_oxide E -83.888312691764
  C      -2.901509     -1.527548     -0.877391
  C      -2.116048     -0.241818     -0.708092
  C      -2.406528      0.433623      0.622892
  C      -1.533721      1.656859      0.804403
  O      -0.166138      1.342557      0.700846
  C       0.169937      0.803003     -0.564577
  C      -0.617639     -0.474453     -0.830679
  C       1.652420      0.601471     -0.682835
  C       2.481101      0.041496      0.193428
  C       3.941652     -0.080102     -0.113754
  C       2.083610     -0.501348      1.530093
  H      -2.698725     -1.990575     -1.843573
  H      -3.975114     -1.348321     -0.810103
  H      -2.635470     -2.247758     -0.101620
  H      -2.412898      0.450979     -1.504891
  H      -2.209352     -0.267266      1.439372
  H      -3.458883      0.718273      0.689725
  H      -1.669948      2.102050      1.788681
  H      -1.792764      2.417615      0.054972
  H      -0.123831      1.541796     -1.324157
  H      -0.366965     -0.848139     -1.825366
  H      -0.299384     -1.236205     -0.114294
  H       2.074650      0.943268     -1.621508
  H       4.186562      0.317862     -1.096439
  H       4.254201     -1.125479     -0.078927
  H       4.536411      0.452636      0.630072
  H       1.030860     -0.356519      1.742145
  H       2.318073     -1.566708      1.581307
  H       2.655443     -0.011246      2.320268
29
Coordinates from ORCA-job ./output/_z_rose_oxide/_z_rose_oxide E -83.888327628525
  C      -2.901318     -1.526684     -0.879721
  C      -2.115664     -0.241357     -0.708616
  C      -2.406451      0.432662      0.623057
  C      -1.533640      1.655447      0.806050
  O      -0.166383      1.340606      0.703178
  C       0.169494      0.803134     -0.562783
  C      -0.617155     -0.473784     -0.829942
  C       1.652158      0.601835     -0.681783
  C       2.480666      0.043223      0.194794
  C       3.940280     -0.083529     -0.116509
  C       2.084026     -0.498060      1.532256
  H      -2.698257     -1.988307     -1.846280
  H      -3.974613     -1.346960     -0.812820
  H      -2.635850     -2.247709     -0.104883
  H      -2.411809      0.452192     -1.504561
  H      -2.211056     -0.269241      1.438576
  H      -3.458227      0.719251      0.688468
  H      -1.672037      2.099151      1.790514
  H      -1.792158      2.416412      0.057168
  H      -0.123409      1.542262     -1.322042
  H      -0.365701     -0.846673     -1.824583
  H      -0.299410     -1.236392     -0.114461
  H       2.073897      0.940524     -1.621676
  H       4.183049      0.312039     -1.100363
  H       4.251167     -1.129032     -0.080128
  H       4.537957      0.450130      0.624180
  H       1.029911     -0.362680      1.742320
  H       2.330858     -1.559967      1.589994
  H       2.649678      0.001510      2.320595
29
Coordinates from ORCA-job ./output/_z_rose_oxide/_z_rose_oxide E -83.888333690611
  C      -2.904006     -1.524270     -0.884845
  C      -2.116900     -0.240571     -0.709990
  C      -2.407338      0.431023      0.622979
  C      -1.532876      1.651939      0.809434
  O      -0.166312      1.335652      0.706030
  C       0.169045      0.801094     -0.560859
  C      -0.618565     -0.473963     -0.830460
  C       1.651502      0.598589     -0.681288
  C       2.481029      0.043450      0.195980
  C       3.939857     -0.086337     -0.119005
  C       2.088166     -0.491988      1.536743
  H      -2.701274     -1.983455     -1.852489
  H      -3.976929     -1.343162     -0.817898
  H      -2.639739     -2.247619     -0.111949
  H      -2.411454      0.455267     -1.504331
  H      -2.214589     -0.273284      1.436804
  H      -3.458284      0.720633      0.687499
  H      -1.671992      2.093171      1.794754
  H      -1.790079      2.414556      0.061946
  H      -0.122966      1.542004     -1.318675
  H      -0.366541     -0.845565     -1.825411
  H      -0.301947     -1.238350     -0.116454
  H       2.071677      0.932287     -1.623606
  H       4.179704      0.303898     -1.105508
  H       4.251226     -1.131300     -0.077469
  H       4.539623      0.451815      0.616700
  H       1.032797     -0.367364      1.745976
  H       2.349731     -1.549539      1.604636
  H       2.647438      0.021392      2.320756
29
Coordinates from ORCA-job ./output/_z_rose_oxide/_z_rose_oxide E -83.888335609417
  C      -2.906181     -1.522510     -0.888106
  C      -2.117977     -0.239924     -0.710894
  C      -2.407936      0.430020      0.622989
  C      -1.531868      1.649422      0.811940
  O      -0.165799      1.331980      0.707661
  C       0.168966      0.799504     -0.560017
  C      -0.619843     -0.474239     -0.831562
  C       1.650990      0.595578     -0.681522
  C       2.481373      0.042799      0.196279
  C       3.939969     -0.087649     -0.120005
  C       2.091019     -0.487908      1.539595
  H      -2.704023     -1.979967     -1.856667
  H      -3.978901     -1.340414     -0.820688
  H      -2.642424     -2.247540     -0.116614
  H      -2.411731      0.457505     -1.504177
  H      -2.216571     -0.275966      1.435695
  H      -3.458410      0.721345      0.687453
  H      -1.670629      2.088935      1.798038
  H      -1.788162      2.413611      0.065673
  H      -0.122614      1.542013     -1.316533
  H      -0.367984     -0.844733     -1.826990
  H      -0.303824     -1.239912     -0.118575
  H       2.069917      0.925770     -1.625632
  H       4.178336      0.298913     -1.108317
  H       4.251977     -1.132223     -0.074549
  H       4.540396      0.453790      0.612773
  H       1.034185     -0.372370      1.746677
  H       2.363581     -1.542098      1.615184
  H       2.644171      0.036268      2.320890
29
Coordinates from ORCA-job ./output/_z_rose_oxide/_z_rose_oxide E -83.888336706813
  C      -2.908708     -1.520601     -0.891945
  C      -2.119305     -0.239144     -0.712146
  C      -2.408804      0.428657      0.622877
  C      -1.531068      1.646482      0.814706
  O      -0.165405      1.327845      0.709530
  C       0.168878      0.797797     -0.559144
  C      -0.621422     -0.474619     -0.833310
  C       1.650364      0.592012     -0.681633
  C       2.482107      0.042382      0.196896
  C       3.940302     -0.089093     -0.120988
  C       2.094846     -0.482501      1.543377
  H      -2.707229     -1.976112     -1.861598
  H      -3.981266     -1.337568     -0.823847
  H      -2.645385     -2.247553     -0.122056
  H      -2.412322      0.460102     -1.504209
  H      -2.218514     -0.279223      1.434290
  H      -3.458929      0.721198      0.687729
  H      -1.669094      2.084012      1.801800
  H      -1.786435      2.412684      0.070058
  H      -0.122131      1.542356     -1.314002
  H      -0.369920     -0.843740     -1.829367
  H      -0.305958     -1.241641     -0.121409
  H       2.067626      0.917848     -1.628037
  H       4.177066      0.292804     -1.111551
  H       4.252487     -1.133445     -0.070862
  H       4.541794      0.455940      0.608281
  H       1.036946     -0.374396      1.748984
  H       2.376159     -1.533876      1.626097
  H       2.643324      0.051396      2.321479
29
Coordinates from ORCA-job ./output/_z_rose_oxide/_z_rose_oxide E -83.888337072087
  C      -2.909827     -1.519705     -0.893779
  C      -2.119868     -0.238692     -0.712811
  C      -2.409216      0.427925      0.622817
  C      -1.530870      1.645136      0.815942
  O      -0.165321      1.325877      0.710550
  C       0.168835      0.797106     -0.558671
  C      -0.622107     -0.474787     -0.834254
  C       1.650040      0.590214     -0.681566
  C       2.482610      0.042301      0.197319
  C       3.940519     -0.089797     -0.121550
  C       2.096768     -0.479635      1.545407
  H      -2.708625     -1.974304     -1.863938
  H      -3.982328     -1.336305     -0.825367
  H      -2.646692     -2.247538     -0.124630
  H      -2.412615      0.461373     -1.504287
  H      -2.219127     -0.280789      1.433606
  H      -3.459286      0.720599      0.688045
  H      -1.668520      2.081759      1.803520
  H      -1.785785      2.412341      0.072134
  H      -0.121767      1.542729     -1.312661
  H      -0.370833     -0.843193     -1.830629
  H      -0.306850     -1.242332     -0.122772
  H       2.066343      0.913579     -1.629266
  H       4.176531      0.289979     -1.113143
  H       4.252405     -1.134172     -0.069503
  H       4.542751      0.456562      0.606137
  H       1.038342     -0.374667      1.750107
  H       2.381324     -1.529925      1.631091
  H       2.643170      0.058363      2.322151
