! wB97X-3c OPT FREQ TightSCF
%pal
  nprocs 40
end
* xyz 0 1
C     -2.900673    -1.541685    -0.814697
C     -2.107005    -0.236168    -0.701197
C     -2.381626     0.457692     0.640988
C     -1.481041     1.690135     0.782867
O     -0.113948     1.330910     0.705022
C      0.188064     0.803408    -0.576118
C     -0.599711    -0.492993    -0.856458
C      1.676941     0.563967    -0.718811
C      2.493691     0.003693     0.206345
C      3.943877    -0.194706    -0.156853
C      2.023195    -0.397511     1.586238
H     -2.710502    -2.018573    -1.799817
H     -3.988927    -1.334160    -0.732937
H     -2.609598    -2.251214    -0.010426
H     -2.438027     0.438668    -1.522906
H     -2.176443    -0.240014     1.483162
H     -3.446813     0.771507     0.694483
H     -1.665584     2.148817     1.776967
H     -1.738946     2.457920     0.018060
H     -0.081495     1.549063    -1.361061
H     -0.389428    -0.837562    -1.893118
H     -0.285776    -1.297158    -0.159731
H      2.112099     0.860774    -1.670740
H      4.404317     0.782999    -0.413520
H      4.021096    -0.873059    -1.032905
H      4.523331    -0.639734     0.678559
H      1.164336    -1.093068     1.528970
H      2.825493    -0.915210     2.151650
H      1.739106     0.503265     2.167983
*
