25
Coordinates from ORCA-job ./output/myrtenal/myrtenal E -81.412691717930
  C      -0.888388     -1.101242     -1.313336
  C      -0.945278     -0.238007     -0.021554
  C      -0.619563      1.277331     -0.124669
  C       0.560870      1.513200     -1.129183
  C       1.712996      0.537625     -0.828947
  C       1.562289     -0.369304      0.173765
  C       0.249320     -0.310165      0.966641
  C       0.032515      1.186112      1.269366
  C       2.614801     -1.348432      0.480944
  O       2.462220     -2.184560      1.409720
  C      -2.303636     -0.499162      0.677294
  H       0.052362     -1.036618     -1.888659
  H      -1.028203     -2.171245     -1.050392
  H      -1.710754     -0.799369     -1.995991
  H      -1.482320      1.972647     -0.210664
  H       0.930732      2.555673     -1.028769
  H       0.207496      1.373039     -2.172250
  H       2.613122      0.564994     -1.430342
  H       0.146539     -0.997067      1.834431
  H       0.954880      1.794771      1.419272
  H      -0.688159      1.360505      2.097342
  H       3.532822     -1.359147     -0.092728
  H      -2.393255     -1.574807      0.940040
  H      -3.137645     -0.231607     -0.006036
  H      -2.435764      0.084834      1.610168
25
Coordinates from ORCA-job ./output/myrtenal/myrtenal E -81.427324471765
  C      -0.920596     -1.099748     -1.293041
  C      -0.938805     -0.243833     -0.031641
  C      -0.596378      1.264285     -0.142296
  C       0.572022      1.489055     -1.115180
  C       1.698282      0.535806     -0.800150
  C       1.548538     -0.361315      0.181859
  C       0.256925     -0.321134      0.956588
  C       0.000205      1.167077      1.276175
  C       2.602922     -1.323121      0.483195
  O       2.487026     -2.157349      1.363867
  C      -2.271231     -0.476584      0.670839
  H       0.000615     -1.042997     -1.864919
  H      -1.069388     -2.147970     -1.026874
  H      -1.737857     -0.799468     -1.952476
  H      -1.431783      1.951405     -0.284113
  H       0.934345      2.516206     -1.023711
  H       0.249143      1.346911     -2.149666
  H       2.604575      0.569564     -1.392717
  H       0.184183     -1.030999      1.776231
  H       0.883976      1.774095      1.468650
  H      -0.737091      1.313776      2.062334
  H       3.525803     -1.295481     -0.106725
  H      -2.374716     -1.529310      0.937565
  H      -3.095019     -0.207233      0.007829
  H      -2.375698      0.108363      1.583841
25
Coordinates from ORCA-job ./output/myrtenal/myrtenal E -81.428964652598
  C      -0.928250     -1.099712     -1.284801
  C      -0.939695     -0.246441     -0.034384
  C      -0.583725      1.260602     -0.147313
  C       0.577441      1.477616     -1.110233
  C       1.689738      0.528373     -0.795681
  C       1.540215     -0.359518      0.185296
  C       0.258425     -0.325463      0.956939
  C      -0.015893      1.159939      1.283161
  C       2.599067     -1.319439      0.485095
  O       2.515697     -2.158973      1.344254
  C      -2.267170     -0.463537      0.672879
  H      -0.003793     -1.037367     -1.850271
  H      -1.078562     -2.146189     -1.021162
  H      -1.744288     -0.802953     -1.943596
  H      -1.406445      1.952036     -0.325297
  H       0.942599      2.503588     -1.029768
  H       0.262836      1.337587     -2.146202
  H       2.599099      0.562815     -1.385603
  H       0.210475     -1.057787      1.756385
  H       0.856420      1.769957      1.504867
  H      -0.766577      1.297298      2.051684
  H       3.519425     -1.250908     -0.119581
  H      -2.382031     -1.512445      0.942155
  H      -3.091627     -0.191975      0.014657
  H      -2.363380      0.122893      1.581983
25
Coordinates from ORCA-job ./output/myrtenal/myrtenal E -81.429208633491
  C      -0.928465     -1.102614     -1.281691
  C      -0.942203     -0.247529     -0.033092
  C      -0.581351      1.260442     -0.146556
  C       0.579578      1.475672     -1.109147
  C       1.693310      0.529934     -0.791817
  C       1.540030     -0.355755      0.190596
  C       0.256923     -0.324151      0.961521
  C      -0.017938      1.161098      1.284430
  C       2.601667     -1.316032      0.491517
  O       2.521592     -2.178595      1.327832
  C      -2.271604     -0.460771      0.673676
  H      -0.002071     -1.034155     -1.843715
  H      -1.075196     -2.150562     -1.019630
  H      -1.745330     -0.811478     -1.942841
  H      -1.399197      1.955838     -0.336849
  H       0.942706      2.503955     -1.038733
  H       0.267002      1.333721     -2.146463
  H       2.604581      0.564167     -1.379244
  H       0.222542     -1.063789      1.756645
  H       0.853192      1.771507      1.514940
  H      -0.771200      1.301608      2.050290
  H       3.509230     -1.237344     -0.135270
  H      -2.390840     -1.510200      0.941939
  H      -3.096062     -0.189559      0.014068
  H      -2.370899      0.124590      1.583055
25
Coordinates from ORCA-job ./output/myrtenal/myrtenal E -81.428816431884
  C      -0.937424     -1.104309     -1.282083
  C      -0.950716     -0.249527     -0.032737
  C      -0.576663      1.258757     -0.142465
  C       0.582937      1.470074     -1.109040
  C       1.698541      0.524375     -0.793690
  C       1.535901     -0.361670      0.188208
  C       0.251695     -0.330190      0.963620
  C      -0.013984      1.154755      1.285270
  C       2.596099     -1.332755      0.479283
  O       2.555290     -2.176252      1.339237
  C      -2.282813     -0.454358      0.675180
  H      -0.008395     -1.027064     -1.839618
  H      -1.081055     -2.155297     -1.025844
  H      -1.755688     -0.817861     -1.945439
  H      -1.383823      1.965466     -0.346010
  H       0.946225      2.500814     -1.053866
  H       0.268672      1.329942     -2.148020
  H       2.611613      0.556256     -1.378688
  H       0.240536     -1.083541      1.749657
  H       0.859141      1.760770      1.528932
  H      -0.767799      1.303537      2.051143
  H       3.516162     -1.173850     -0.118689
  H      -2.412721     -1.505702      0.936978
  H      -3.107663     -0.177888      0.015718
  H      -2.384068      0.125517      1.588427
25
Coordinates from ORCA-job ./output/myrtenal/myrtenal E -81.429337717502
  C      -0.928617     -1.103943     -1.280787
  C      -0.945387     -0.247724     -0.031831
  C      -0.580917      1.260107     -0.144070
  C       0.580548      1.474198     -1.109419
  C       1.696577      0.528055     -0.793089
  C       1.538177     -0.357804      0.189716
  C       0.253445     -0.325075      0.963507
  C      -0.016272      1.159752      1.284213
  C       2.599029     -1.322097      0.486310
  O       2.529275     -2.181705      1.327810
  C      -2.276168     -0.458586      0.673951
  H      -0.000685     -1.031562     -1.840445
  H      -1.072705     -2.153077     -1.020021
  H      -1.745662     -0.816321     -1.944083
  H      -1.394835      1.960231     -0.336934
  H       0.942738      2.503831     -1.045452
  H       0.266021      1.332536     -2.146932
  H       2.608938      0.561323     -1.378388
  H       0.228963     -1.068308      1.756728
  H       0.855581      1.768481      1.519380
  H      -0.769763      1.304899      2.050913
  H       3.508583     -1.216995     -0.133472
  H      -2.399278     -1.509199      0.938495
  H      -3.100122     -0.185002      0.013614
  H      -2.377467      0.123984      1.585749
25
Coordinates from ORCA-job ./output/myrtenal/myrtenal E -81.429340701872
  C      -0.928654     -1.104429     -1.280582
  C      -0.945226     -0.247749     -0.031771
  C      -0.580863      1.259875     -0.144127
  C       0.580818      1.474235     -1.109456
  C       1.697302      0.528557     -0.792741
  C       1.538295     -0.357546      0.189832
  C       0.253209     -0.325087      0.963380
  C      -0.016168      1.159489      1.283988
  C       2.599166     -1.321725      0.485972
  O       2.527825     -2.181691      1.326915
  C      -2.276112     -0.458318      0.673647
  H      -0.001271     -1.032189     -1.840961
  H      -1.072095     -2.153431     -1.018975
  H      -1.746206     -0.817402     -1.943501
  H      -1.394635      1.960296     -0.336107
  H       0.942155      2.504107     -1.045551
  H       0.265963      1.332029     -2.146768
  H       2.609892      0.561784     -1.377552
  H       0.229570     -1.067972      1.756903
  H       0.855333      1.768471      1.519748
  H      -0.769900      1.304558      2.050491
  H       3.508237     -1.216847     -0.134003
  H      -2.399749     -1.508992      0.937622
  H      -3.099785     -0.183860      0.013344
  H      -2.377102      0.123837      1.585716
25
Coordinates from ORCA-job ./output/myrtenal/myrtenal E -81.429341800368
  C      -0.928088     -1.104640     -1.280171
  C      -0.945033     -0.247590     -0.031556
  C      -0.580691      1.259888     -0.143975
  C       0.580843      1.474167     -1.109597
  C       1.697309      0.528400     -0.792977
  C       1.537965     -0.357576      0.189736
  C       0.252911     -0.325004      0.963494
  C      -0.015902      1.159459      1.284058
  C       2.598986     -1.321762      0.485452
  O       2.526744     -2.181688      1.326360
  C      -2.276297     -0.458103      0.673171
  H      -0.001059     -1.032064     -1.841085
  H      -1.070463     -2.153554     -1.017730
  H      -1.746121     -0.818568     -1.942840
  H      -1.394243      1.960701     -0.335205
  H       0.941660      2.504173     -1.045873
  H       0.265178      1.331563     -2.146572
  H       2.610066      0.561345     -1.377450
  H       0.230535     -1.067746      1.757165
  H       0.855162      1.768676      1.520662
  H      -0.769951      1.304527      2.050278
  H       3.507810     -1.216472     -0.134550
  H      -2.400639     -1.508930      0.936072
  H      -3.099493     -0.182425      0.012842
  H      -2.377190      0.123221      1.585755
