! wB97X-3c OPT FREQ TightSCF
%pal
  nprocs 40
end
* xyz 0 1
C     -0.888388    -1.101242    -1.313336
C     -0.945278    -0.238007    -0.021554
C     -0.619563     1.277331    -0.124669
C      0.560870     1.513200    -1.129183
C      1.712996     0.537625    -0.828947
C      1.562289    -0.369304     0.173765
C      0.249320    -0.310165     0.966641
C      0.032515     1.186112     1.269366
C      2.614801    -1.348432     0.480944
O      2.462220    -2.184560     1.409720
C     -2.303636    -0.499162     0.677294
H      0.052362    -1.036618    -1.888659
H     -1.028203    -2.171245    -1.050392
H     -1.710754    -0.799369    -1.995991
H     -1.482320     1.972647    -0.210664
H      0.930732     2.555673    -1.028769
H      0.207496     1.373039    -2.172250
H      2.613122     0.564994    -1.430342
H      0.146539    -0.997067     1.834431
H      0.954880     1.794771     1.419272
H     -0.688159     1.360505     2.097342
H      3.532822    -1.359147    -0.092728
H     -2.393255    -1.574807     0.940040
H     -3.137645    -0.231607    -0.006036
H     -2.435764     0.084834     1.610168
*
