25
Coordinates from ORCA-job ./output/myrtenal/myrtenal E -81.429341800368
  C          -0.92808775008162     -1.10463997485831     -1.28017090920657
  C          -0.94503318838724     -0.24759043595974     -0.03155622076373
  C          -0.58069109335042      1.25988792163718     -0.14397505493404
  C           0.58084284078590      1.47416746997676     -1.10959661938375
  C           1.69730897653469      0.52839965552165     -0.79297694617735
  C           1.53796505173250     -0.35757556112957      0.18973585573343
  C           0.25291122613104     -0.32500368505708      0.96349379143540
  C          -0.01590238487193      1.15945851653059      1.28405807611236
  C           2.59898619369458     -1.32176154056362      0.48545174148290
  O           2.52674400141837     -2.18168839190279      1.32636044692126
  C          -2.27629679889989     -0.45810317943669      0.67317122866542
  H          -0.00105945820582     -1.03206410457953     -1.84108516860993
  H          -1.07046322455879     -2.15355395721929     -1.01773006896100
  H          -1.74612089891755     -0.81856800236235     -1.94283958342753
  H          -1.39424255477647      1.96070086684194     -0.33520489616378
  H           0.94166039790810      2.50417270399609     -1.04587311743709
  H           0.26517761002579      1.33156256454991     -2.14657235257495
  H           2.61006568256227      0.56134540588032     -1.37745017469527
  H           0.23053506576511     -1.06774560034399      1.75716457100037
  H           0.85516230556261      1.76867618703828      1.52066186341322
  H          -0.76995111270293      1.30452713744182      2.05027813218398
  H           3.50780981454759     -1.21647160878008     -0.13454988089191
  H          -2.40063859482401     -1.50892980583417      0.93607178297268
  H          -3.09949284289374     -0.18242486630063      0.01284190803976
  H          -2.37719026419815      0.12322128491329      1.58575459526613
