20
Coordinates from ORCA-job ./output/neoalloocimene/neoalloocimene E -52.748604523984
  C          -2.56878574428029     -0.34209587317899      0.78691771306923
  C          -1.98823965867763      0.46977128936801     -0.32709395651168
  C          -2.75405670618221      1.00207207160898     -1.27621893000224
  C          -0.53797324368993      0.67579749443738     -0.36346530118657
  C           0.33286405764205      0.20848215059236      0.52285096765702
  C           1.80868921175410      0.44072940284707      0.45580887113288
  C           2.58385120136190     -0.83919047229107      0.41816776710544
  C           3.43367901602110     -1.17785107499465     -0.53668786725727
  H          -2.15339987285298     -1.34975451690084      0.79048112296817
  H          -2.34459387778950      0.10754317351867      1.75419827420511
  H          -3.64883471144327     -0.41861742619894      0.68879778420329
  H          -2.32660063237279      1.58791903501464     -2.07973387476391
  H          -3.82746552247942      0.86799922580068     -1.27851716229797
  H          -0.16857825839374      1.26534210128367     -1.19649793438996
  H          -0.01805352681646     -0.38822632345084      1.35852789754072
  H           2.05420145911722      1.05110758521474     -0.41325424609372
  H           2.11558366002680      1.00650162457833      1.34091816887160
  H           2.41603378247426     -1.52466979037808      1.24380806097707
  H           3.96785369208390     -2.11804244485857     -0.50884894907006
  H           3.62382567449687     -0.52481923201253     -1.38015840615715
