! wB97X-3c OPT FREQ TightSCF
%pal
  nprocs 40
end
* xyz 0 1
C      1.098541     1.832883     2.257020
C      1.655169     1.008720     1.117559
C      0.942599    -0.009944     0.541473
C     -0.523970    -0.247905     0.882251
C     -1.395657     0.119614    -0.341387
C     -0.951222    -0.713846    -1.570697
C      0.548501    -0.531135    -1.878321
C      1.477756    -0.814651    -0.661676
C      2.943355    -0.444357    -1.047009
C      3.254360     1.027151    -0.811596
C      3.059918     1.338316     0.664605
C      1.470643    -2.328690    -0.332073
C     -2.945339     0.028273    -0.077385
C     -3.375124    -1.361797     0.432390
C     -3.393448     1.086504     0.957260
O     -3.643257     0.266049    -1.278422
H      0.833849     1.173236     3.110200
H      0.203868     2.396400     1.917317
H      1.841362     2.569874     2.628396
H     -0.662922    -1.312742     1.152352
H     -0.854404     0.321537     1.767566
H     -1.175407     1.184437    -0.586834
H     -1.520491    -0.392254    -2.468933
H     -1.168947    -1.789575    -1.419334
H      0.819872    -1.196488    -2.727552
H      0.698313     0.514006    -2.226692
H      3.144569    -0.693664    -2.112362
H      3.669221    -1.039896    -0.447269
H      2.596309     1.673712    -1.431294
H      4.309032     1.232905    -1.095974
H      3.782653     0.753465     1.274284
H      3.276704     2.417113     0.821613
H      1.917309    -2.909257    -1.168348
H      0.453786    -2.731329    -0.163017
H      2.066461    -2.525056     0.585515
H     -2.930944    -1.588650     1.423868
H     -4.480288    -1.397822     0.544820
H     -3.091074    -2.159295    -0.283209
H     -3.017125     2.093920     0.678454
H     -3.033557     0.842356     1.978185
H     -4.503116     1.134714     0.995616
H     -3.397856     1.173171    -1.601363
*
