42
Coordinates from ORCA-job ./output/10_epi_gamma_eudesmol/10_epi_gamma_eudesmol E -117.243007853687
  C           1.19203342049778      1.87068201104921      2.24647815246124
  C           1.64443644239006      1.03633155210999      1.08427772037837
  C           0.92746878196576      0.06237272963934      0.51929915934083
  C          -0.51300602130325     -0.19901877117963      0.86557173548778
  C          -1.39265413972168      0.09977030586731     -0.35110759527864
  C          -0.94659297096595     -0.74915495877615     -1.53291587459398
  C           0.53071894606120     -0.56364466201033     -1.83648915175794
  C           1.44314652387754     -0.79757865195891     -0.62369546660609
  C           2.89249089688259     -0.46718931699488     -0.98842006318627
  C           3.21476716939045      1.00335810920397     -0.86618630339168
  C           2.99923315488724      1.43559771482750      0.56634571281615
  C           1.41158411230047     -2.27653441322281     -0.22824834988905
  C          -2.90645331836748      0.00917694322691     -0.07754647152741
  C          -3.38513356732639     -1.40292158667022      0.19640745093475
  C          -3.31498045031355      0.92586399772363      1.06709133385593
  O          -3.60609800077330      0.41476317143526     -1.25389260525013
  H           0.38892362362517      1.42452892662418      2.82376963859229
  H           0.86426448097892      2.85814325843256      1.91404663703162
  H           2.02986251865618      2.03363296873180      2.92610487180237
  H          -0.65265801279886     -1.23789052177312      1.17051164056519
  H          -0.82184468186996      0.41541774241592      1.70304405923473
  H          -1.20452849076226      1.15012312701153     -0.61332866539124
  H          -1.54101220971407     -0.50136298649591     -2.41123877958281
  H          -1.14324190410488     -1.80080085671127     -1.32039955283027
  H           0.82762547578293     -1.23936552123211     -2.64252419099786
  H           0.69419019010176      0.45245474105640     -2.20413806640080
  H           3.09443264791918     -0.83513736707035     -1.99677465820993
  H           3.55982993246338     -1.01778884594957     -0.31990049267240
  H           2.57112274486722      1.59173408964273     -1.52362927007927
  H           4.24267885577001      1.19625344721546     -1.17611730024383
  H           3.77940752640334      1.01466508307238      1.20955361328979
  H           3.09723102226342      2.52017199485498      0.65581812137532
  H           1.87012010453314     -2.87690749000621     -1.01560853692421
  H           0.40765017492126     -2.66081287017047     -0.06958599464665
  H           1.97857194740283     -2.43612167556890      0.68901705281370
  H          -2.86324784177905     -1.83817380751940      1.04602575381376
  H          -4.45074009372981     -1.38903799429330      0.41910833798233
  H          -3.23635951993704     -2.03807435691972     -0.67294094707031
  H          -2.91190251577822      1.93108051385983      0.92864725737641
  H          -2.96965986017221      0.55580758743204      2.02991098624837
  H          -4.40115990720520      0.99287937890410      1.10043156918727
  H          -3.40051518731866      1.33271026018619     -1.43677546805740
