42
Coordinates from ORCA-job ./output/10_epi_gamma_eudesmol/10_epi_gamma_eudesmol E -117.225797858333
  C       1.098541      1.832883      2.257020
  C       1.655169      1.008720      1.117559
  C       0.942599     -0.009944      0.541473
  C      -0.523970     -0.247905      0.882251
  C      -1.395657      0.119614     -0.341387
  C      -0.951222     -0.713846     -1.570697
  C       0.548501     -0.531135     -1.878321
  C       1.477756     -0.814651     -0.661676
  C       2.943355     -0.444357     -1.047009
  C       3.254360      1.027151     -0.811596
  C       3.059918      1.338316      0.664605
  C       1.470643     -2.328690     -0.332073
  C      -2.945339      0.028273     -0.077385
  C      -3.375124     -1.361797      0.432390
  C      -3.393448      1.086504      0.957260
  O      -3.643257      0.266049     -1.278422
  H       0.833849      1.173236      3.110200
  H       0.203868      2.396400      1.917317
  H       1.841362      2.569874      2.628396
  H      -0.662922     -1.312742      1.152352
  H      -0.854404      0.321537      1.767566
  H      -1.175407      1.184437     -0.586834
  H      -1.520491     -0.392254     -2.468933
  H      -1.168947     -1.789575     -1.419334
  H       0.819872     -1.196488     -2.727552
  H       0.698313      0.514006     -2.226692
  H       3.144569     -0.693664     -2.112362
  H       3.669221     -1.039896     -0.447269
  H       2.596309      1.673712     -1.431294
  H       4.309032      1.232905     -1.095974
  H       3.782653      0.753465      1.274284
  H       3.276704      2.417113      0.821613
  H       1.917309     -2.909257     -1.168348
  H       0.453786     -2.731329     -0.163017
  H       2.066461     -2.525056      0.585515
  H      -2.930944     -1.588650      1.423868
  H      -4.480288     -1.397822      0.544820
  H      -3.091074     -2.159295     -0.283209
  H      -3.017125      2.093920      0.678454
  H      -3.033557      0.842356      1.978185
  H      -4.503116      1.134714      0.995616
  H      -3.397856      1.173171     -1.601363
42
Coordinates from ORCA-job ./output/10_epi_gamma_eudesmol/10_epi_gamma_eudesmol E -117.240246343052
  C       1.068415      1.818317      2.236192
  C       1.632099      1.003828      1.098834
  C       0.937246      0.013355      0.519370
  C      -0.507117     -0.240200      0.857428
  C      -1.380392      0.119075     -0.346720
  C      -0.945767     -0.703872     -1.557634
  C       0.541454     -0.526422     -1.858132
  C       1.458903     -0.802536     -0.655449
  C       2.906388     -0.452043     -1.030013
  C       3.232373      1.011340     -0.808927
  C       3.027819      1.344342      0.654411
  C       1.426397     -2.296833     -0.314273
  C      -2.900976      0.026627     -0.072047
  C      -3.325410     -1.355552      0.398133
  C      -3.318630      1.062857      0.972703
  O      -3.616298      0.273062     -1.267547
  H       0.789182      1.177821      3.073099
  H       0.192782      2.383086      1.912725
  H       1.801195      2.533253      2.607998
  H      -0.642458     -1.293596      1.115816
  H      -0.820473      0.321983      1.733376
  H      -1.171256      1.171892     -0.584470
  H      -1.514224     -0.399422     -2.436375
  H      -1.164155     -1.761076     -1.396116
  H       0.815834     -1.185808     -2.686372
  H       0.702534      0.499492     -2.202037
  H       3.093198     -0.724469     -2.072324
  H       3.601465     -1.045146     -0.428057
  H       2.589581      1.644283     -1.424916
  H       4.267424      1.210469     -1.097216
  H       3.746562      0.787103      1.264756
  H       3.222299      2.407551      0.813803
  H       1.859478     -2.879099     -1.130479
  H       0.418833     -2.674357     -0.146218
  H       2.008483     -2.490487      0.588079
  H      -2.877363     -1.600617      1.358553
  H      -4.409028     -1.384278      0.516274
  H      -3.054174     -2.121797     -0.326998
  H      -2.953724      2.057227      0.703133
  H      -2.942072      0.815984      1.964660
  H      -4.406341      1.104196      1.030669
  H      -3.390082      1.150467     -1.577694
42
Coordinates from ORCA-job ./output/10_epi_gamma_eudesmol/10_epi_gamma_eudesmol E -117.241580458370
  C       1.079830      1.824215      2.233911
  C       1.634326      1.008154      1.093264
  C       0.937334      0.032445      0.508942
  C      -0.501497     -0.229547      0.849899
  C      -1.380776      0.114256     -0.352252
  C      -0.943718     -0.712980     -1.553863
  C       0.540714     -0.540676     -1.850007
  C       1.455518     -0.804675     -0.646167
  C       2.900697     -0.462367     -1.012705
  C       3.229336      1.002366     -0.821694
  C       3.017751      1.373063      0.630752
  C       1.419746     -2.292125     -0.286968
  C      -2.894826      0.028370     -0.068768
  C      -3.345941     -1.362131      0.331854
  C      -3.293573      1.027854      1.011103
  O      -3.615207      0.335667     -1.254374
  H       0.783130      1.193302      3.069622
  H       0.213476      2.406433      1.922412
  H       1.824545      2.523283      2.607171
  H      -0.636719     -1.279397      1.112721
  H      -0.806343      0.340878      1.720404
  H      -1.176456      1.165799     -0.593591
  H      -1.516890     -0.425670     -2.432515
  H      -1.162226     -1.766157     -1.378504
  H       0.822717     -1.205993     -2.668702
  H       0.709773      0.479793     -2.200681
  H       3.089567     -0.768064     -2.043260
  H       3.581949     -1.044844     -0.388589
  H       2.587369      1.620707     -1.450726
  H       4.259519      1.199501     -1.119411
  H       3.757050      0.860851      1.253416
  H       3.179119      2.442399      0.769514
  H       1.860417     -2.880451     -1.092244
  H       0.414035     -2.668329     -0.123546
  H       1.995080     -2.476072      0.619619
  H      -2.894692     -1.665651      1.271931
  H      -4.426936     -1.368849      0.456559
  H      -3.098667     -2.093816     -0.432786
  H      -2.933764      2.028727      0.768781
  H      -2.899478      0.753137      1.985911
  H      -4.378621      1.063575      1.086848
  H      -3.386668      1.223023     -1.533284
42
Coordinates from ORCA-job ./output/10_epi_gamma_eudesmol/10_epi_gamma_eudesmol E -117.242060445258
  C       1.109049      1.813729      2.250954
  C       1.643050      1.006439      1.094985
  C       0.938718      0.040830      0.507018
  C      -0.499801     -0.219694      0.853058
  C      -1.383519      0.110930     -0.351471
  C      -0.944349     -0.722479     -1.546699
  C       0.535856     -0.546897     -1.847046
  C       1.452706     -0.805103     -0.643190
  C       2.899608     -0.465452     -1.004067
  C       3.228543      0.999855     -0.833597
  C       3.012930      1.395875      0.610969
  C       1.419327     -2.290566     -0.277918
  C      -2.894911      0.028304     -0.067443
  C      -3.361978     -1.364959      0.299218
  C      -3.299531      1.014918      1.019106
  O      -3.607149      0.355315     -1.258978
  H       0.789429      1.181532      3.077793
  H       0.257500      2.428231      1.958586
  H       1.874472      2.484302      2.635695
  H      -0.640965     -1.266249      1.126762
  H      -0.795446      0.365565      1.716421
  H      -1.185088      1.162877     -0.598680
  H      -1.528966     -0.453584     -2.424574
  H      -1.155274     -1.775118     -1.355936
  H       0.823417     -1.213215     -2.663678
  H       0.706544      0.473045     -2.199367
  H       3.093514     -0.795677     -2.026496
  H       3.571143     -1.040058     -0.361516
  H       2.586150      1.609301     -1.472215
  H       4.256563      1.196886     -1.138628
  H       3.775330      0.927881      1.242166
  H       3.140512      2.472304      0.732123
  H       1.873486     -2.876807     -1.077566
  H       0.414500     -2.673417     -0.125086
  H       1.986955     -2.470121      0.634762
  H      -2.900697     -1.703070      1.223761
  H      -4.441242     -1.355930      0.437875
  H      -3.137439     -2.077064     -0.490100
  H      -2.941752      2.019098      0.786850
  H      -2.906944      0.735705      1.993383
  H      -4.385222      1.046121      1.089188
  H      -3.379029      1.246420     -1.526425
42
Coordinates from ORCA-job ./output/10_epi_gamma_eudesmol/10_epi_gamma_eudesmol E -117.242259131598
  C       1.128258      1.817977      2.254231
  C       1.646173      1.013123      1.090302
  C       0.937197      0.047181      0.506392
  C      -0.501916     -0.209805      0.856262
  C      -1.384664      0.110071     -0.353192
  C      -0.943499     -0.732148     -1.542513
  C       0.534885     -0.555151     -1.846585
  C       1.450529     -0.805830     -0.639135
  C       2.901331     -0.471106     -0.994581
  C       3.229637      0.995516     -0.844509
  C       3.007485      1.414649      0.592099
  C       1.415398     -2.288567     -0.261921
  C      -2.896058      0.029099     -0.069625
  C      -3.375636     -1.370660      0.257333
  C      -3.297368      0.989534      1.040030
  O      -3.605827      0.393288     -1.255084
  H       0.772354      1.186428      3.067250
  H       0.303411      2.471981      1.967063
  H       1.914996      2.451929      2.659407
  H      -0.647691     -1.253383      1.141973
  H      -0.794768      0.389826      1.711727
  H      -1.188910      1.161622     -0.606712
  H      -1.535059     -0.476950     -2.420331
  H      -1.149309     -1.784109     -1.338968
  H       0.825755     -1.225162     -2.659787
  H       0.706095      0.463462     -2.204132
  H       3.103542     -0.821695     -2.009195
  H       3.564700     -1.036869     -0.334695
  H       2.590292      1.596331     -1.495575
  H       4.258635      1.189690     -1.149811
  H       3.783185      0.982756      1.234106
  H       3.110368      2.496857      0.692851
  H       1.877502     -2.878855     -1.054775
  H       0.409805     -2.673177     -0.114013
  H       1.977360     -2.461580      0.656100
  H      -2.899012     -1.749362      1.159010
  H      -4.452073     -1.351703      0.418893
  H      -3.177152     -2.055680     -0.562875
  H      -2.933150      1.997555      0.832953
  H      -2.907291      0.685328      2.008762
  H      -4.383437      1.025534      1.107333
  H      -3.376072      1.292061     -1.496066
42
Coordinates from ORCA-job ./output/10_epi_gamma_eudesmol/10_epi_gamma_eudesmol E -117.242426542576
  C       1.146272      1.822396      2.255611
  C       1.649129      1.018243      1.086055
  C       0.937016      0.048793      0.509752
  C      -0.502334     -0.202647      0.864580
  C      -1.383240      0.109609     -0.349291
  C      -0.942386     -0.739193     -1.534541
  C       0.534486     -0.561764     -1.844233
  C       1.449019     -0.807164     -0.634552
  C       2.902068     -0.476305     -0.987208
  C       3.227311      0.992273     -0.856963
  C       3.000436      1.431815      0.572349
  C       1.413290     -2.288163     -0.248176
  C      -2.896162      0.029862     -0.071567
  C      -3.385344     -1.375306      0.219219
  C      -3.301269      0.966335      1.057076
  O      -3.597361      0.423755     -1.253848
  H       0.731287      1.195293      3.043500
  H       0.369167      2.532367      1.965060
  H       1.957851      2.399540      2.696451
  H      -0.652909     -1.242429      1.162908
  H      -0.792352      0.411122      1.711101
  H      -1.188344      1.160150     -0.607843
  H      -1.540812     -0.492375     -2.410732
  H      -1.144035     -1.790222     -1.321443
  H       0.825624     -1.234867     -2.655080
  H       0.705436      0.455406     -2.206514
  H       3.111688     -0.843770     -1.994562
  H       3.559910     -1.032316     -0.313106
  H       2.590173      1.583505     -1.519271
  H       4.257189      1.184483     -1.161542
  H       3.788005      1.035498      1.223192
  H       3.078450      2.518867      0.651418
  H       1.878989     -2.882172     -1.036621
  H       0.407785     -2.673781     -0.100949
  H       1.973183     -2.455720      0.672330
  H      -2.890869     -1.791953      1.094574
  H      -4.457433     -1.350596      0.408108
  H      -3.214283     -2.031756     -0.630229
  H      -2.920476      1.974682      0.881125
  H      -2.929571      0.632813      2.023560
  H      -4.387803      1.016419      1.108057
  H      -3.366776      1.329273     -1.467757
42
Coordinates from ORCA-job ./output/10_epi_gamma_eudesmol/10_epi_gamma_eudesmol E -117.242597398811
  C       1.159689      1.836979      2.249116
  C       1.648969      1.026923      1.079493
  C       0.935412      0.050658      0.514178
  C      -0.504167     -0.196117      0.872677
  C      -1.381157      0.108813     -0.345886
  C      -0.940622     -0.745598     -1.527581
  C       0.536001     -0.569425     -1.840538
  C       1.447426     -0.808864     -0.627612
  C       2.902226     -0.482925     -0.977966
  C       3.223933      0.988264     -0.869415
  C       2.991445      1.448874      0.552020
  C       1.408534     -2.287749     -0.230789
  C      -2.895747      0.029806     -0.074716
  C      -3.392516     -1.381336      0.174760
  C      -3.299201      0.934240      1.080715
  O      -3.589763      0.461321     -1.247647
  H       0.650681      1.229187      2.994828
  H       0.467746      2.625144      1.942906
  H       1.997143      2.325176      2.746755
  H      -0.658228     -1.231865      1.183798
  H      -0.795123      0.430951      1.709061
  H      -1.185833      1.158148     -0.608469
  H      -1.542716     -0.502327     -2.402507
  H      -1.140156     -1.795619     -1.307969
  H       0.826462     -1.247029     -2.647870
  H       0.706628      0.445492     -2.209028
  H       3.119240     -0.865980     -1.977947
  H       3.556056     -1.027677     -0.290746
  H       2.589980      1.568312     -1.544255
  H       4.255470      1.177465     -1.170780
  H       3.786741      1.084663      1.211946
  H       3.048134      2.539535      0.607796
  H       1.872445     -2.888849     -1.015099
  H       0.402390     -2.670399     -0.079467
  H       1.968931     -2.449398      0.690482
  H      -2.873804     -1.840481      1.014314
  H      -4.457484     -1.355748      0.400828
  H      -3.255498     -2.001315     -0.707666
  H      -2.894962      1.940367      0.947304
  H      -2.949633      0.557973      2.039980
  H      -4.385171      1.005613      1.116434
  H      -3.359898      1.374802     -1.425440
42
Coordinates from ORCA-job ./output/10_epi_gamma_eudesmol/10_epi_gamma_eudesmol E -117.242735245961
  C       1.168853      1.849944      2.244519
  C       1.647776      1.032636      1.076875
  C       0.933836      0.052170      0.518265
  C      -0.506076     -0.194437      0.876338
  C      -1.381015      0.107816     -0.343825
  C      -0.940301     -0.746126     -1.525380
  C       0.537089     -0.570776     -1.837146
  C       1.446216     -0.808459     -0.622834
  C       2.900538     -0.485077     -0.974241
  C       3.220953      0.987547     -0.874604
  C       2.987648      1.454919      0.544386
  C       1.405063     -2.286714     -0.223061
  C      -2.896898      0.027051     -0.077226
  C      -3.391539     -1.387177      0.158754
  C      -3.301500      0.918193      1.088795
  O      -3.587334      0.469157     -1.246515
  H       0.574572      1.271477      2.947493
  H       0.567205      2.703514      1.923238
  H       2.019841      2.252131      2.794143
  H      -0.659771     -1.228562      1.192234
  H      -0.801208      0.436286      1.707638
  H      -1.185471      1.156756     -0.606634
  H      -1.540892     -0.498639     -2.400035
  H      -1.140566     -1.796043     -1.307455
  H       0.826669     -1.250245     -2.642901
  H       0.706848      0.443096     -2.208065
  H       3.118688     -0.871983     -1.972255
  H       3.555264     -1.025057     -0.284519
  H       2.588144      1.562788     -1.553834
  H       4.253318      1.174641     -1.173872
  H       3.783234      1.096877      1.206663
  H       3.041139      2.546217      0.592404
  H       1.862632     -2.892228     -1.007401
  H       0.398574     -2.665133     -0.065238
  H       1.969091     -2.446727      0.696058
  H      -2.856495     -1.861158      0.979319
  H      -4.451493     -1.366812      0.407246
  H      -3.271324     -1.991121     -0.737003
  H      -2.882108      1.920874      0.979383
  H      -2.969150      0.518432      2.044470
  H      -4.386721      1.002966      1.113434
  H      -3.363329      1.386989     -1.407616
42
Coordinates from ORCA-job ./output/10_epi_gamma_eudesmol/10_epi_gamma_eudesmol E -117.242873425684
  C       1.177970      1.864929      2.241231
  C       1.645304      1.037803      1.077126
  C       0.930887      0.056367      0.521037
  C      -0.509380     -0.194994      0.874738
  C      -1.384111      0.105146     -0.345260
  C      -0.941471     -0.744905     -1.528100
  C       0.537128     -0.567884     -1.834667
  C       1.444535     -0.805101     -0.619709
  C       2.897162     -0.482826     -0.974488
  C       3.218959      0.990088     -0.873779
  C       2.988548      1.452908      0.547149
  C       1.402037     -2.283382     -0.221102
  C      -2.900298      0.020148     -0.079635
  C      -3.386928     -1.395586      0.162249
  C      -3.305080      0.911467      1.086777
  O      -3.591739      0.456095     -1.248367
  H       0.487940      1.335430      2.890868
  H       0.694524      2.785380      1.906429
  H       2.032380      2.162560      2.849654
  H      -0.658408     -1.229429      1.190116
  H      -0.812598      0.432608      1.704581
  H      -1.190115      1.154487     -0.606675
  H      -1.536814     -0.490300     -2.403872
  H      -1.142800     -1.795521     -1.316337
  H       0.827614     -1.247283     -2.639768
  H       0.704619      0.446110     -2.205383
  H       3.111438     -0.865475     -1.974679
  H       3.556085     -1.023441     -0.289868
  H       2.585775      1.566206     -1.551120
  H       4.251518      1.175384     -1.172415
  H       3.778349      1.078707      1.206775
  H       3.054799      2.542775      0.601296
  H       1.851854     -2.891337     -1.007489
  H       0.395321     -2.657456     -0.056622
  H       1.970534     -2.444005      0.694892
  H      -2.840744     -1.866361      0.976845
  H      -4.443812     -1.382371      0.423000
  H      -3.272131     -1.999020     -0.734303
  H      -2.878888      1.911720      0.986195
  H      -2.981391      0.502749      2.041410
  H      -4.389901      1.000702      1.107203
  H      -3.378669      1.376914     -1.405935
42
Coordinates from ORCA-job ./output/10_epi_gamma_eudesmol/10_epi_gamma_eudesmol E -117.242949627266
  C       1.184842      1.874043      2.240432
  C       1.644291      1.040008      1.079116
  C       0.928871      0.061176      0.521031
  C      -0.511346     -0.195551      0.870710
  C      -1.388385      0.102405     -0.347985
  C      -0.943665     -0.745027     -1.531364
  C       0.535269     -0.564928     -1.834028
  C       1.443417     -0.801385     -0.619474
  C       2.894571     -0.477974     -0.978055
  C       3.218712      0.993999     -0.870103
  C       2.993226      1.446498      0.554865
  C       1.402952     -2.279844     -0.222708
  C      -2.903810      0.013819     -0.079739
  C      -3.384745     -1.401432      0.173526
  C      -3.309462      0.912678      1.080593
  O      -3.598307      0.438473     -1.250352
  H       0.433975      1.386526      2.853341
  H       0.785339      2.832112      1.901368
  H       2.033916      2.100698      2.886279
  H      -0.655058     -1.231329      1.183160
  H      -0.819626      0.426791      1.702341
  H      -1.197350      1.152406     -0.608965
  H      -1.535566     -0.488407     -2.408643
  H      -1.144680     -1.796355     -1.323085
  H       0.828194     -1.243135     -2.639166
  H       0.700635      0.449912     -2.203303
  H       3.103245     -0.854278     -1.981772
  H       3.557427     -1.022474     -0.300526
  H       2.583168      1.574652     -1.541339
  H       4.250312      1.179512     -1.171429
  H       3.776779      1.049689      1.208750
  H       3.076074      2.533963      0.622730
  H       1.851404     -2.886652     -1.010524
  H       0.396739     -2.654389     -0.056997
  H       1.972858     -2.440973      0.692282
  H      -2.840333     -1.860796      0.995629
  H      -4.442856     -1.391236      0.428967
  H      -3.262244     -2.013800     -0.715856
  H      -2.887127      1.913565      0.973722
  H      -2.983133      0.510377      2.036974
  H      -4.394651      0.996512      1.103366
  H      -3.393872      1.360154     -1.413771
42
Coordinates from ORCA-job ./output/10_epi_gamma_eudesmol/10_epi_gamma_eudesmol E -117.242991054803
  C       1.189991      1.878682      2.240711
  C       1.644349      1.040221      1.081458
  C       0.927629      0.064831      0.519853
  C      -0.512564     -0.195502      0.866851
  C      -1.392192      0.100358     -0.350563
  C      -0.945783     -0.746814     -1.533253
  C       0.532623     -0.563158     -1.834558
  C       1.442756     -0.798362     -0.620821
  C       2.892967     -0.472489     -0.982948
  C       3.218682      0.998175     -0.866568
  C       2.998588      1.439334      0.562680
  C       1.406076     -2.276939     -0.225048
  C      -2.906413      0.009188     -0.078537
  C      -3.384491     -1.404951      0.184533
  C      -3.313309      0.916051      1.074740
  O      -3.604340      0.423999     -1.251560
  H       0.397213      1.425397      2.826382
  H       0.850650      2.859864      1.902208
  H       2.030889      2.055042      2.912948
  H      -0.652415     -1.232716      1.176526
  H      -0.822755      0.422616      1.701060
  H      -1.204374      1.150847     -0.612347
  H      -1.537067     -0.493148     -2.411848
  H      -1.144934     -1.798601     -1.324630
  H       0.828445     -1.239843     -2.640045
  H       0.696330      0.452700     -2.202282
  H       3.096643     -0.843388     -1.989790
  H       3.558600     -1.021332     -0.311527
  H       2.579743      1.584033     -1.530498
  H       4.248671      1.185666     -1.172305
  H       3.777508      1.022900      1.210219
  H       3.095259      2.524394      0.644969
  H       1.858416     -2.880755     -1.013040
  H       0.400717     -2.655369     -0.062350
  H       1.974657     -2.437800      0.690909
  H      -2.848359     -1.852641      1.018598
  H      -4.445768     -1.394819      0.426670
  H      -3.249867     -2.027668     -0.695916
  H      -2.899281      1.918992      0.955725
  H      -2.979150      0.526262      2.033720
  H      -4.399073      0.991262      1.102451
  H      -3.405264      1.345485     -1.422782
42
Coordinates from ORCA-job ./output/10_epi_gamma_eudesmol/10_epi_gamma_eudesmol E -117.243003215081
  C       1.190831      1.876559      2.242473
  C       1.644671      1.038723      1.082882
  C       0.927567      0.064731      0.518981
  C      -0.512745     -0.196302      0.865362
  C      -1.393202      0.100033     -0.351388
  C      -0.946591     -0.748071     -1.533373
  C       0.531206     -0.562985     -1.835551
  C       1.442908     -0.797609     -0.622463
  C       2.892730     -0.469408     -0.986353
  C       3.217925      1.000689     -0.865229
  C       3.000836      1.435560      0.566336
  C       1.409178     -2.276335     -0.226915
  C      -2.906869      0.008523     -0.077551
  C      -3.384898     -1.404587      0.191281
  C      -3.314746      0.920668      1.070917
  O      -3.606392      0.417919     -1.252455
  H       0.390921      1.429303      2.823341
  H       0.859595      2.861212      1.905694
  H       2.029720      2.045159      2.919380
  H      -0.651849     -1.234442      1.172923
  H      -0.822141      0.419705      1.701523
  H      -1.206231      1.150570     -0.613783
  H      -1.539157     -0.497882     -2.412238
  H      -1.144344     -1.799857     -1.322803
  H       0.828143     -1.238810     -2.641470
  H       0.694619      0.453293     -2.202630
  H       3.094523     -0.837818     -1.994574
  H       3.559388     -1.020393     -0.317519
  H       2.576544      1.589154     -1.524827
  H       4.246739      1.190589     -1.173794
  H       3.778849      1.012210      1.210657
  H       3.101808      2.519725      0.655271
  H       1.865581     -2.877787     -1.014574
  H       0.404578     -2.658373     -0.067198
  H       1.976344     -2.436699      0.690091
  H      -2.856654     -1.845185      1.034240
  H      -4.448724     -1.392763      0.422245
  H      -3.241781     -2.034251     -0.682948
  H      -2.907284      1.925155      0.941490
  H      -2.973991      0.541576      2.031928
  H      -4.400835      0.990261      1.102244
  H      -3.406769      1.338241     -1.429624
42
Coordinates from ORCA-job ./output/10_epi_gamma_eudesmol/10_epi_gamma_eudesmol E -117.243006542034
  C       1.192096      1.873955      2.244388
  C       1.644881      1.037354      1.083827
  C       0.927598      0.063570      0.519194
  C      -0.512923     -0.197360      0.865429
  C      -1.393072      0.099824     -0.351319
  C      -0.946645     -0.749156     -1.532818
  C       0.530727     -0.563535     -1.835956
  C       1.443047     -0.797614     -0.623062
  C       2.892602     -0.467952     -0.987718
  C       3.216110      1.002318     -0.865807
  C       3.000421      1.435266      0.566492
  C       1.410887     -2.276393     -0.227300
  C      -2.906705      0.008720     -0.077409
  C      -3.385519     -1.403896      0.193305
  C      -3.315130      0.922900      1.069138
  O      -3.606291      0.416585     -1.253206
  H       0.387442      1.430204      2.821354
  H       0.866804      2.861588      1.909994
  H       2.029551      2.036132      2.924690
  H      -0.652383     -1.235851      1.171956
  H      -0.821759      0.418142      1.702152
  H      -1.205852      1.150235     -0.614016
  H      -1.540540     -0.501190     -2.411479
  H      -1.143419     -1.800833     -1.320539
  H       0.827965     -1.239157     -2.641977
  H       0.694136      0.452740     -2.203186
  H       3.094254     -0.836194     -1.996050
  H       3.559661     -1.018842     -0.319130
  H       2.573075      1.590902     -1.523763
  H       4.244191      1.194150     -1.175834
  H       3.779667      1.012559      1.209745
  H       3.100187      2.519586      0.656551
  H       1.869361     -2.876886     -1.014600
  H       0.406753     -2.660316     -0.068847
  H       1.977518     -2.436164      0.690163
  H      -2.860908     -1.842329      1.039678
  H      -4.450368     -1.390573      0.419602
  H      -3.239561     -2.036071     -0.678676
  H      -2.910205      1.927911      0.934957
  H      -2.971775      0.548730      2.031141
  H      -4.401294      0.990872      1.101510
  H      -3.404584      1.336069     -1.432580
42
Coordinates from ORCA-job ./output/10_epi_gamma_eudesmol/10_epi_gamma_eudesmol E -117.243007498195
  C       1.191968      1.871693      2.245782
  C       1.644669      1.036760      1.084048
  C       0.927547      0.062905      0.519069
  C      -0.512953     -0.198299      0.865381
  C      -1.392837      0.099969     -0.351262
  C      -0.946626     -0.749030     -1.532925
  C       0.530684     -0.563440     -1.836422
  C       1.443120     -0.797507     -0.623614
  C       2.892598     -0.467428     -0.988357
  C       3.215486      1.002942     -0.865882
  C       3.000026      1.435079      0.566693
  C       1.411198     -2.276371     -0.227970
  C      -2.906546      0.009023     -0.077469
  C      -3.385049     -1.403285      0.195705
  C      -3.315233      0.925054      1.067584
  O      -3.606311      0.414950     -1.253758
  H       0.389825      1.425126      2.824152
  H       0.862503      2.858330      1.912579
  H       2.030105      2.036470      2.924601
  H      -0.652494     -1.237100      1.170787
  H      -0.821658      0.416390      1.702724
  H      -1.205166      1.150357     -0.613697
  H      -1.540949     -0.501374     -2.411380
  H      -1.143249     -1.800690     -1.320376
  H       0.827739     -1.239043     -2.642517
  H       0.694176      0.452758     -2.203816
  H       3.094346     -0.835309     -1.996792
  H       3.559771     -1.018402     -0.319951
  H       2.572087      1.591667     -1.523304
  H       4.243453      1.195435     -1.175921
  H       3.779630      1.012899      1.209816
  H       3.099154      2.519481      0.656783
  H       1.869862     -2.876774     -1.015248
  H       0.407146     -2.660527     -0.069572
  H       1.977917     -2.436079      0.689448
  H      -2.862403     -1.839252      1.044531
  H      -4.450482     -1.389659      0.419270
  H      -3.236895     -2.037697     -0.674296
  H      -2.911934      1.930319      0.930119
  H      -2.970259      0.554139      2.030236
  H      -4.401433      0.992014      1.100728
  H      -3.402536      1.333509     -1.435508
42
Coordinates from ORCA-job ./output/10_epi_gamma_eudesmol/10_epi_gamma_eudesmol E -117.243007853687
  C       1.192033      1.870682      2.246478
  C       1.644436      1.036332      1.084278
  C       0.927469      0.062373      0.519299
  C      -0.513006     -0.199019      0.865572
  C      -1.392654      0.099770     -0.351108
  C      -0.946593     -0.749155     -1.532916
  C       0.530719     -0.563645     -1.836489
  C       1.443147     -0.797579     -0.623695
  C       2.892491     -0.467189     -0.988420
  C       3.214767      1.003358     -0.866186
  C       2.999233      1.435598      0.566346
  C       1.411584     -2.276534     -0.228248
  C      -2.906453      0.009177     -0.077546
  C      -3.385134     -1.402922      0.196407
  C      -3.314980      0.925864      1.067091
  O      -3.606098      0.414763     -1.253893
  H       0.388924      1.424529      2.823770
  H       0.864264      2.858143      1.914047
  H       2.029863      2.033633      2.926105
  H      -0.652658     -1.237891      1.170512
  H      -0.821845      0.415418      1.703044
  H      -1.204528      1.150123     -0.613329
  H      -1.541012     -0.501363     -2.411239
  H      -1.143242     -1.800801     -1.320400
  H       0.827625     -1.239366     -2.642524
  H       0.694190      0.452455     -2.204138
  H       3.094433     -0.835137     -1.996775
  H       3.559830     -1.017789     -0.319900
  H       2.571123      1.591734     -1.523629
  H       4.242679      1.196253     -1.176117
  H       3.779408      1.014665      1.209554
  H       3.097231      2.520172      0.655818
  H       1.870120     -2.876907     -1.015609
  H       0.407650     -2.660813     -0.069586
  H       1.978572     -2.436122      0.689017
  H      -2.863248     -1.838174      1.046026
  H      -4.450740     -1.389038      0.419108
  H      -3.236360     -2.038074     -0.672941
  H      -2.911903      1.931081      0.928647
  H      -2.969660      0.555808      2.029911
  H      -4.401160      0.992879      1.100432
  H      -3.400515      1.332710     -1.436775
