! wB97X-3c OPT FREQ TightSCF
%pal
  nprocs 40
end
* xyz 0 1
C      4.678144     0.385865     1.477795
C      3.516713    -0.047019     0.621814
C      2.503583     0.827334     0.425007
C      1.272349     0.553418    -0.403164
C      0.194686    -0.161519     0.435572
C     -1.220239    -0.291834    -0.234785
C     -2.131327    -1.317940     0.513233
C     -3.532139    -1.085403    -0.071765
C     -3.565030     0.421358     0.115385
C     -2.124877     0.909291     0.047870
C     -2.789296     0.685120     1.399621
C     -2.338397    -0.680354     1.893719
C     -1.854788     2.350569    -0.377184
C     -1.094905    -0.594442    -1.754021
C      3.580150    -1.404308    -0.047665
O      4.322373    -1.321520    -1.233123
H      4.328327     0.581069     2.513573
H      5.466634    -0.395233     1.514179
H      5.127949     1.313260     1.063720
H      2.554739     1.801424     0.905925
H      0.876567     1.528537    -0.754188
H      1.542040    -0.036196    -1.302925
H      0.559652    -1.178830     0.690719
H      0.111377     0.405302     1.387307
H     -1.785243    -2.373406     0.520981
H     -3.652008    -1.399037    -1.125896
H     -4.332238    -1.583328     0.521481
H     -4.411559     1.101792    -0.114784
H     -3.110177     1.545908     2.023218
H     -1.423277    -0.638081     2.517002
H     -3.136799    -1.182652     2.485298
H     -0.984984     2.746967     0.185734
H     -2.732495     2.999678    -0.171478
H     -1.634454     2.384081    -1.463872
H     -0.525901     0.201786    -2.274189
H     -2.064187    -0.619107    -2.283674
H     -0.579397    -1.566376    -1.905527
H      4.084877    -2.123340     0.631341
H      2.575020    -1.832855    -0.245100
H      3.728535    -0.909976    -1.913399
*
