40
Coordinates from ORCA-job ./output/_z_alpha_santalol/_z_alpha_santalol E -115.946242489009
  C       4.678144      0.385865      1.477795
  C       3.516713     -0.047019      0.621814
  C       2.503583      0.827334      0.425007
  C       1.272349      0.553418     -0.403164
  C       0.194686     -0.161519      0.435572
  C      -1.220239     -0.291834     -0.234785
  C      -2.131327     -1.317940      0.513233
  C      -3.532139     -1.085403     -0.071765
  C      -3.565030      0.421358      0.115385
  C      -2.124877      0.909291      0.047870
  C      -2.789296      0.685120      1.399621
  C      -2.338397     -0.680354      1.893719
  C      -1.854788      2.350569     -0.377184
  C      -1.094905     -0.594442     -1.754021
  C       3.580150     -1.404308     -0.047665
  O       4.322373     -1.321520     -1.233123
  H       4.328327      0.581069      2.513573
  H       5.466634     -0.395233      1.514179
  H       5.127949      1.313260      1.063720
  H       2.554739      1.801424      0.905925
  H       0.876567      1.528537     -0.754188
  H       1.542040     -0.036196     -1.302925
  H       0.559652     -1.178830      0.690719
  H       0.111377      0.405302      1.387307
  H      -1.785243     -2.373406      0.520981
  H      -3.652008     -1.399037     -1.125896
  H      -4.332238     -1.583328      0.521481
  H      -4.411559      1.101792     -0.114784
  H      -3.110177      1.545908      2.023218
  H      -1.423277     -0.638081      2.517002
  H      -3.136799     -1.182652      2.485298
  H      -0.984984      2.746967      0.185734
  H      -2.732495      2.999678     -0.171478
  H      -1.634454      2.384081     -1.463872
  H      -0.525901      0.201786     -2.274189
  H      -2.064187     -0.619107     -2.283674
  H      -0.579397     -1.566376     -1.905527
  H       4.084877     -2.123340      0.631341
  H       2.575020     -1.832855     -0.245100
  H       3.728535     -0.909976     -1.913399
40
Coordinates from ORCA-job ./output/_z_alpha_santalol/_z_alpha_santalol E -115.960813229633
  C       4.641876      0.352441      1.494585
  C       3.483908     -0.040083      0.611573
  C       2.468159      0.807379      0.434682
  C       1.236002      0.541975     -0.387630
  C       0.159844     -0.166463      0.438267
  C      -1.228867     -0.288160     -0.219914
  C      -2.125732     -1.303979      0.533258
  C      -3.514113     -1.077065     -0.068686
  C      -3.543251      0.425081      0.113538
  C      -2.118826      0.918472      0.047069
  C      -2.770572      0.701724      1.391378
  C      -2.314624     -0.648820      1.904302
  C      -1.832207      2.327104     -0.408195
  C      -1.104926     -0.611048     -1.707318
  C       3.567884     -1.362855     -0.101922
  O       4.379294     -1.271042     -1.253184
  H       4.304816      0.492791      2.521888
  H       5.419733     -0.410548      1.495483
  H       5.090105      1.282367      1.146600
  H       2.505992      1.765311      0.943594
  H       0.845484      1.499633     -0.737409
  H       1.490414     -0.037758     -1.275557
  H       0.516061     -1.168870      0.692170
  H       0.067974      0.382284      1.376657
  H      -1.778227     -2.336877      0.545964
  H      -3.618266     -1.393634     -1.106144
  H      -4.296756     -1.573666      0.509614
  H      -4.365972      1.077253     -0.143817
  H      -3.060991      1.545426      2.001696
  H      -1.407021     -0.600696      2.505913
  H      -3.086299     -1.145484      2.496738
  H      -0.968896      2.731947      0.123085
  H      -2.685915      2.973535     -0.210364
  H      -1.630237      2.349926     -1.480999
  H      -0.538823      0.159701     -2.230594
  H      -2.069274     -0.648733     -2.210296
  H      -0.599887     -1.569010     -1.847408
  H       4.030156     -2.100798      0.556248
  H       2.578781     -1.755414     -0.351224
  H       3.873196     -0.823345     -1.929885
40
Coordinates from ORCA-job ./output/_z_alpha_santalol/_z_alpha_santalol E -115.963410947370
  C       4.636633      0.322510      1.498997
  C       3.484154     -0.038404      0.595963
  C       2.448446      0.781760      0.453142
  C       1.218199      0.529029     -0.371109
  C       0.136939     -0.177305      0.444056
  C      -1.247520     -0.291866     -0.207799
  C      -2.146058     -1.294129      0.559966
  C      -3.531423     -1.068218     -0.047156
  C      -3.547887      0.434431      0.116079
  C      -2.129247      0.926420      0.044999
  C      -2.776794      0.724067      1.386421
  C      -2.329924     -0.618746      1.921728
  C      -1.822485      2.309696     -0.444726
  C      -1.126439     -0.634869     -1.683815
  C       3.596210     -1.329563     -0.162487
  O       4.512168     -1.224187     -1.237426
  H       4.308439      0.388710      2.533916
  H       5.429594     -0.418562      1.446662
  H       5.066331      1.280909      1.218884
  H       2.459755      1.713318      1.011634
  H       0.833786      1.485090     -0.723340
  H       1.466377     -0.047799     -1.259068
  H       0.492863     -1.178909      0.694955
  H       0.043610      0.357943      1.386739
  H      -1.796861     -2.323155      0.581518
  H      -3.631192     -1.399453     -1.076744
  H      -4.310939     -1.556822      0.536831
  H      -4.364752      1.075840     -0.172767
  H      -3.044783      1.572151      1.995592
  H      -1.423983     -0.571701      2.519239
  H      -3.100893     -1.107969      2.516052
  H      -0.947438      2.720469      0.056571
  H      -2.660982      2.972719     -0.246533
  H      -1.642015      2.317244     -1.519087
  H      -0.560133      0.123053     -2.219503
  H      -2.094621     -0.688645     -2.171158
  H      -0.620371     -1.590824     -1.816729
  H       3.988364     -2.107915      0.489405
  H       2.622951     -1.672749     -0.512008
  H       4.111917     -0.693564     -1.924139
40
Coordinates from ORCA-job ./output/_z_alpha_santalol/_z_alpha_santalol E -115.965073410672
  C       4.646213      0.314130      1.471486
  C       3.493889     -0.039776      0.569094
  C       2.431357      0.748359      0.453254
  C       1.202501      0.506770     -0.370017
  C       0.113685     -0.182862      0.446790
  C      -1.273118     -0.288961     -0.197201
  C      -2.173124     -1.285901      0.578642
  C      -3.559008     -1.058264     -0.029999
  C      -3.567788      0.443919      0.126972
  C      -2.153262      0.938214      0.052614
  C      -2.798346      0.738253      1.390925
  C      -2.355474     -0.600253      1.936918
  C      -1.829820      2.302706     -0.461906
  C      -1.153798     -0.635687     -1.671429
  C       3.638894     -1.318070     -0.200401
  O       4.686532     -1.240501     -1.153918
  H       4.341400      0.302968      2.516443
  H       5.467292     -0.388422      1.355797
  H       5.035432      1.305887      1.252053
  H       2.416029      1.655694      1.052299
  H       0.831889      1.462995     -0.737040
  H       1.440541     -0.080349     -1.253955
  H       0.467275     -1.186453      0.698758
  H       0.027445      0.346394      1.394389
  H      -1.817849     -2.313169      0.600445
  H      -3.656230     -1.397074     -1.057103
  H      -4.336562     -1.544774      0.558586
  H      -4.386308      1.073017     -0.187428
  H      -3.048613      1.584908      2.011502
  H      -1.449800     -0.556542      2.534680
  H      -3.128320     -1.088403      2.530033
  H      -0.940277      2.715748      0.011134
  H      -2.653286      2.985030     -0.256829
  H      -1.672161      2.302109     -1.540026
  H      -0.587262      0.118851     -2.212084
  H      -2.125984     -0.703437     -2.148479
  H      -0.642026     -1.588930     -1.807967
  H       3.926636     -2.128758      0.466915
  H       2.701277     -1.603368     -0.674752
  H       4.440126     -0.615994     -1.835443
40
Coordinates from ORCA-job ./output/_z_alpha_santalol/_z_alpha_santalol E -115.965619095149
  C       4.646858      0.317623      1.457011
  C       3.503042     -0.040029      0.547340
  C       2.417313      0.721273      0.454642
  C       1.190795      0.483807     -0.370102
  C       0.097430     -0.198753      0.447763
  C      -1.293118     -0.296426     -0.193440
  C      -2.199535     -1.282419      0.589537
  C      -3.587170     -1.044000     -0.014102
  C      -3.582343      0.458911      0.137236
  C      -2.163643      0.941371      0.053279
  C      -2.805759      0.752444      1.394472
  C      -2.370022     -0.586695      1.945033
  C      -1.822563      2.296130     -0.475507
  C      -1.180861     -0.648486     -1.668976
  C       3.682429     -1.305515     -0.235245
  O       4.807767     -1.237172     -1.095920
  H       4.360604      0.218885      2.504022
  H       5.503117     -0.329265      1.280685
  H       4.978224      1.343349      1.304060
  H       2.381911      1.609756      1.081275
  H       0.829161      1.442626     -0.742997
  H       1.425683     -0.108111     -1.252663
  H       0.447909     -1.205410      0.695945
  H       0.017255      0.326554      1.399594
  H      -1.849256     -2.312303      0.612592
  H      -3.691631     -1.387287     -1.039939
  H      -4.366862     -1.520970      0.581167
  H      -4.401442      1.086380     -0.182981
  H      -3.042990      1.599607      2.021533
  H      -1.460833     -0.548215      2.539783
  H      -3.145583     -1.065544      2.543972
  H      -0.916728      2.697414     -0.021320
  H      -2.627883      2.999363     -0.262072
  H      -1.682550      2.286571     -1.556811
  H      -0.611833      0.101492     -2.214604
  H      -2.155513     -0.717256     -2.142784
  H      -0.671778     -1.604369     -1.805463
  H       3.898001     -2.135649      0.437522
  H       2.782365     -1.560436     -0.793840
  H       4.660029     -0.549246     -1.745944
40
Coordinates from ORCA-job ./output/_z_alpha_santalol/_z_alpha_santalol E -115.965946237259
  C       4.647974      0.329954      1.443587
  C       3.514729     -0.041021      0.526117
  C       2.414603      0.701901      0.441711
  C       1.188793      0.455978     -0.380167
  C       0.089584     -0.201248      0.451936
  C      -1.302917     -0.296105     -0.187482
  C      -2.213447     -1.279333      0.594505
  C      -3.599188     -1.036136     -0.011824
  C      -3.591895      0.467452      0.140731
  C      -2.170109      0.944842      0.058515
  C      -2.817154      0.758402      1.399212
  C      -2.387067     -0.583336      1.949581
  C      -1.822371      2.299202     -0.470664
  C      -1.191538     -0.646695     -1.664524
  C       3.714859     -1.307698     -0.250764
  O       4.871315     -1.253381     -1.068020
  H       4.383367      0.145625      2.485457
  H       5.539172     -0.250100      1.214232
  H       4.910749      1.383242      1.355116
  H       2.367967      1.585359      1.074811
  H       0.838374      1.411254     -0.773564
  H       1.419921     -0.157399     -1.249541
  H       0.430947     -1.208107      0.712987
  H       0.016814      0.339535      1.395913
  H      -1.865410     -2.310423      0.617767
  H      -3.703306     -1.378226     -1.038729
  H      -4.382871     -1.509952      0.581719
  H      -4.412749      1.093304     -0.179774
  H      -3.055471      1.602310      2.031087
  H      -1.480654     -0.547894      2.549378
  H      -3.168158     -1.058056      2.545763
  H      -0.910840      2.691745     -0.019489
  H      -2.619663      3.011085     -0.253871
  H      -1.685746      2.286673     -1.552811
  H      -0.620707      0.103537     -2.209050
  H      -2.165419     -0.713055     -2.141391
  H      -0.683991     -1.603913     -1.801010
  H       3.892505     -2.137978      0.434364
  H       2.836040     -1.558081     -0.845302
  H       4.772958     -0.533258     -1.692755
40
Coordinates from ORCA-job ./output/_z_alpha_santalol/_z_alpha_santalol E -115.966510658672
  C       4.638677      0.340017      1.446812
  C       3.529084     -0.042535      0.505117
  C       2.403904      0.666411      0.444187
  C       1.183433      0.412669     -0.381986
  C       0.075491     -0.221177      0.458500
  C      -1.317811     -0.307643     -0.183957
  C      -2.240522     -1.273058      0.604394
  C      -3.624782     -1.014876      0.001591
  C      -3.598971      0.490850      0.143135
  C      -2.168241      0.945235      0.052168
  C      -2.816226      0.780099      1.397554
  C      -2.399721     -0.564985      1.954203
  C      -1.802219      2.293647     -0.486097
  C      -1.210603     -0.670695     -1.659912
  C       3.769858     -1.293095     -0.288604
  O       4.941566     -1.219587     -1.077539
  H       4.443168     -0.044887      2.449327
  H       5.589646     -0.066101      1.108096
  H       4.743685      1.421399      1.526409
  H       2.334030      1.530833      1.100848
  H       0.846588      1.366381     -0.793231
  H       1.415499     -0.220299     -1.237016
  H       0.403967     -1.229750      0.729444
  H       0.007532      0.333892      1.395212
  H      -1.906893     -2.309168      0.634220
  H      -3.739638     -1.361468     -1.023237
  H      -4.415345     -1.470781      0.601058
  H      -4.418260      1.120917     -0.174309
  H      -3.046254      1.626439      2.029852
  H      -1.490636     -0.534816      2.551953
  H      -3.186049     -1.021520      2.558719
  H      -0.875130      2.663646     -0.046202
  H      -2.578877      3.025798     -0.262415
  H      -1.678067      2.268267     -1.569919
  H      -0.630542      0.069610     -2.209035
  H      -2.182838     -0.726184     -2.142527
  H      -0.715856     -1.636303     -1.786343
  H       3.928923     -2.128176      0.397130
  H       2.911617     -1.551025     -0.910817
  H       4.876813     -0.447980     -1.643027
40
Coordinates from ORCA-job ./output/_z_alpha_santalol/_z_alpha_santalol E -115.967182500834
  C       4.635856      0.350179      1.447007
  C       3.546803     -0.049234      0.489634
  C       2.398093      0.623779      0.449597
  C       1.182873      0.357134     -0.379674
  C       0.062592     -0.237312      0.474151
  C      -1.329472     -0.316216     -0.174002
  C      -2.268162     -1.262719      0.617329
  C      -3.644146     -0.992424      0.004194
  C      -3.602606      0.515643      0.133390
  C      -2.163607      0.947700      0.046399
  C      -2.823209      0.805247      1.391019
  C      -2.427502     -0.542734      1.959661
  C      -1.779395      2.290817     -0.497869
  C      -1.221091     -0.695490     -1.646029
  C       3.828077     -1.281588     -0.319971
  O       4.981077     -1.166408     -1.126368
  H       4.598941     -0.274878      2.341900
  H       5.615738      0.223540      0.990173
  H       4.528267      1.386359      1.763315
  H       2.306724      1.472875      1.122866
  H       0.863657      1.304313     -0.819622
  H       1.414403     -0.306182     -1.210872
  H       0.371992     -1.245115      0.767928
  H      -0.000477      0.344314      1.394524
  H      -1.949716     -2.303169      0.658714
  H      -3.759219     -1.343608     -1.019331
  H      -4.446411     -1.430860      0.601272
  H      -4.416851      1.149786     -0.187929
  H      -3.050950      1.655148      2.018895
  H      -1.523143     -0.517166      2.564764
  H      -3.224980     -0.980176      2.563909
  H      -0.843855      2.640673     -0.059401
  H      -2.540777      3.038088     -0.275306
  H      -1.656781      2.252305     -1.581489
  H      -0.629561      0.032652     -2.199371
  H      -2.189877     -0.739325     -2.137222
  H      -0.740730     -1.669891     -1.757396
  H       4.013500     -2.111179      0.366716
  H       2.973197     -1.572102     -0.933139
  H       4.910725     -0.352771     -1.628611
40
Coordinates from ORCA-job ./output/_z_alpha_santalol/_z_alpha_santalol E -115.967746029672
  C       4.642663      0.340696      1.454467
  C       3.547962     -0.060846      0.507405
  C       2.396192      0.606449      0.475146
  C       1.184817      0.342023     -0.361473
  C       0.057643     -0.246511      0.486352
  C      -1.329810     -0.321958     -0.170580
  C      -2.278190     -1.256805      0.622923
  C      -3.649200     -0.983338      0.001966
  C      -3.597948      0.525479      0.118557
  C      -2.156555      0.947333      0.035867
  C      -2.822196      0.819530      1.378432
  C      -2.437659     -0.526744      1.959058
  C      -1.765035      2.285645     -0.514156
  C      -1.214721     -0.715441     -1.637287
  C       3.839225     -1.272932     -0.326852
  O       4.943546     -1.099671     -1.189416
  H       4.709985     -0.378334      2.273354
  H       5.607230      0.353333      0.949695
  H       4.453673      1.321853      1.884187
  H       2.298704      1.447289      1.157191
  H       0.869624      1.289187     -0.803127
  H       1.419642     -0.322925     -1.189547
  H       0.360252     -1.253768      0.786900
  H      -0.011356      0.340351      1.402334
  H      -1.968338     -2.298912      0.674324
  H      -3.762554     -1.341033     -1.018834
  H      -4.456542     -1.411917      0.598355
  H      -4.404855      1.164098     -0.210156
  H      -3.046569      1.676903      1.996152
  H      -1.535188     -0.501302      2.566188
  H      -3.238787     -0.954808      2.564053
  H      -0.831160      2.633711     -0.071880
  H      -2.526347      3.034182     -0.299397
  H      -1.636643      2.240074     -1.596369
  H      -0.613458      0.002002     -2.193201
  H      -2.180456     -0.753021     -2.133753
  H      -0.743852     -1.695113     -1.736090
  H       4.093537     -2.097654      0.342202
  H       2.966377     -1.594982     -0.896723
  H       4.816344     -0.282121     -1.672514
40
Coordinates from ORCA-job ./output/_z_alpha_santalol/_z_alpha_santalol E -115.968356801926
  C       4.661595      0.315906      1.463107
  C       3.541674     -0.077056      0.547425
  C       2.401388      0.606691      0.509558
  C       1.192430      0.349712     -0.334338
  C       0.060188     -0.246035      0.498643
  C      -1.320930     -0.321618     -0.167712
  C      -2.274586     -1.251957      0.625943
  C      -3.639915     -0.985048     -0.009849
  C      -3.587842      0.523134      0.096325
  C      -2.149824      0.948369      0.025479
  C      -2.823393      0.826300      1.361380
  C      -2.444838     -0.513666      1.956441
  C      -1.759668      2.282416     -0.528993
  C      -1.194975     -0.727006     -1.627849
  C       3.819714     -1.272532     -0.311986
  O       4.837595     -1.026375     -1.263503
  H       4.805463     -0.446828      2.229758
  H       5.601640      0.397768      0.919938
  H       4.455149      1.262353      1.955631
  H       2.307016      1.447527      1.191756
  H       0.872727      1.297557     -0.768920
  H       1.432170     -0.304666     -1.168362
  H       0.362363     -1.251807      0.802827
  H      -0.020234      0.337248      1.415154
  H      -1.965553     -2.293007      0.687533
  H      -3.741364     -1.350370     -1.028217
  H      -4.449501     -1.413703      0.581597
  H      -4.384095      1.165208     -0.248773
  H      -3.046726      1.694467      1.962871
  H      -1.546414     -0.484539      2.567481
  H      -3.247410     -0.942595      2.556901
  H      -0.838920      2.648040     -0.075562
  H      -2.536757      3.018684     -0.331063
  H      -1.614666      2.236471     -1.608353
  H      -0.588230     -0.017158     -2.185987
  H      -2.159932     -0.766769     -2.124013
  H      -0.725601     -1.707408     -1.717676
  H       4.187243     -2.083490      0.316946
  H       2.916432     -1.635692     -0.801857
  H       4.606587     -0.238525     -1.755925
40
Coordinates from ORCA-job ./output/_z_alpha_santalol/_z_alpha_santalol E -115.968454988703
  C       4.662940      0.301818      1.471680
  C       3.542674     -0.078735      0.553558
  C       2.402168      0.604966      0.518269
  C       1.193492      0.349626     -0.325589
  C       0.059922     -0.246870      0.504922
  C      -1.319964     -0.323738     -0.164079
  C      -2.276854     -1.249346      0.632246
  C      -3.641577     -0.984097     -0.007827
  C      -3.587474      0.523943      0.090551
  C      -2.149306      0.948818      0.020805
  C      -2.825857      0.833186      1.355180
  C      -2.449986     -0.503000      1.958706
  C      -1.755590      2.278294     -0.541243
  C      -1.189760     -0.734697     -1.622923
  C       3.821453     -1.266765     -0.318350
  O       4.818034     -0.995630     -1.286939
  H       4.854863     -0.498621      2.188449
  H       5.587239      0.452113      0.915431
  H       4.433746      1.209893      2.024225
  H       2.305667      1.442056      1.205153
  H       0.873351      1.297781     -0.760303
  H       1.433100     -0.302907     -1.161843
  H       0.363049     -1.252219      0.811061
  H      -0.022390      0.335430      1.422493
  H      -1.967859     -2.290403      0.699618
  H      -3.740477     -1.355980     -1.024289
  H      -4.452070     -1.409930      0.585043
  H      -4.380425      1.166454     -0.262840
  H      -3.047857      1.706854      1.950092
  H      -1.552452     -0.472490      2.571516
  H      -3.254278     -0.929889      2.558937
  H      -0.837317      2.650443     -0.087378
  H      -2.534937      3.015464     -0.351778
  H      -1.606386      2.227964     -1.620127
  H      -0.580203     -0.027734     -2.182286
  H      -2.154262     -0.777314     -2.120070
  H      -0.719539     -1.715499     -1.709087
  H       4.219717     -2.077358      0.292090
  H       2.913965     -1.639173     -0.793768
  H       4.561442     -0.212704     -1.775553
40
Coordinates from ORCA-job ./output/_z_alpha_santalol/_z_alpha_santalol E -115.968480095623
  C       4.665535      0.297030      1.473665
  C       3.541075     -0.080592      0.559593
  C       2.404485      0.609626      0.522020
  C       1.195161      0.357828     -0.321613
  C       0.062677     -0.243490      0.506957
  C      -1.316895     -0.322479     -0.162670
  C      -2.272745     -1.250056      0.632550
  C      -3.637427     -0.987885     -0.010463
  C      -3.587393      0.519830      0.088658
  C      -2.149961      0.949025      0.021116
  C      -2.828935      0.831316      1.354151
  C      -2.450778     -0.503145      1.958724
  C      -1.757236      2.278410     -0.541493
  C      -1.185069     -0.731788     -1.622313
  C       3.812825     -1.269441     -0.315193
  O       4.801825     -0.995260     -1.291806
  H       4.847275     -0.493368      2.203810
  H       5.591047      0.427148      0.913615
  H       4.452522      1.217950      2.012124
  H       2.312672      1.450163      1.205533
  H       0.873611      1.307323     -0.752907
  H       1.434123     -0.290225     -1.162000
  H       0.368810     -1.248913      0.810898
  H      -0.020136      0.335160      1.427063
  H      -1.960432     -2.290264      0.700404
  H      -3.732587     -1.360980     -1.027097
  H      -4.447565     -1.416475      0.581281
  H      -4.380284      1.161586     -0.267067
  H      -3.054473      1.705716      1.947167
  H      -1.554552     -0.471281      2.573680
  H      -3.255551     -0.932777      2.556778
  H      -0.842949      2.656658     -0.084245
  H      -2.540174      3.013973     -0.358185
  H      -1.602414      2.227932     -1.619776
  H      -0.578205     -0.021873     -2.181099
  H      -2.149781     -0.779425     -2.119032
  H      -0.709666     -1.710288     -1.710069
  H       4.219960     -2.081667      0.287016
  H       2.901460     -1.640649     -0.784442
  H       4.530143     -0.224353     -1.791576
40
Coordinates from ORCA-job ./output/_z_alpha_santalol/_z_alpha_santalol E -115.968486533998
  C       4.665036      0.297714      1.473300
  C       3.541589     -0.080660      0.558658
  C       2.404400      0.608935      0.521213
  C       1.194995      0.357924     -0.322372
  C       0.062452     -0.242529      0.506969
  C      -1.317205     -0.321914     -0.162302
  C      -2.272546     -1.249953      0.632640
  C      -3.637553     -0.988185     -0.010143
  C      -3.588505      0.519507      0.089443
  C      -2.150869      0.949450      0.021483
  C      -2.830136      0.831229      1.354673
  C      -2.450910     -0.503085      1.958872
  C      -1.757750      2.278584     -0.541469
  C      -1.185482     -0.730225     -1.622395
  C       3.813870     -1.270383     -0.314712
  O       4.806616     -0.998992     -1.288378
  H       4.851221     -0.494682      2.200236
  H       5.588439      0.434930      0.911234
  H       4.449530      1.215324      2.016390
  H       2.312659      1.449225      1.204970
  H       0.874770      1.307662     -0.754193
  H       1.432935     -0.290616     -1.162677
  H       0.368764     -1.248044      0.810634
  H      -0.019296      0.336005      1.427271
  H      -1.959298     -2.289906      0.700123
  H      -3.732702     -1.361525     -1.026719
  H      -4.447445     -1.416966      0.581894
  H      -4.382331      1.160539     -0.265558
  H      -3.057138      1.704856      1.948303
  H      -1.554900     -0.471123      2.574235
  H      -3.255826     -0.932920      2.556727
  H      -0.843833      2.657145     -0.083628
  H      -2.540007      3.015381     -0.359968
  H      -1.601701      2.227023     -1.619568
  H      -0.580062     -0.018778     -2.180857
  H      -2.149983     -0.779735     -2.119362
  H      -0.708109     -1.707785     -1.710842
  H       4.216940     -2.083656      0.288969
  H       2.903632     -1.639669     -0.787605
  H       4.535734     -0.230100     -1.791735
40
Coordinates from ORCA-job ./output/_z_alpha_santalol/_z_alpha_santalol E -115.968489866552
  C       4.664259      0.298626      1.473105
  C       3.541371     -0.080351      0.558134
  C       2.404146      0.609289      0.520386
  C       1.194688      0.359146     -0.323412
  C       0.062275     -0.241529      0.506142
  C      -1.317449     -0.321367     -0.162624
  C      -2.272016     -1.250089      0.632225
  C      -3.637497     -0.988676     -0.009553
  C      -3.589068      0.519030      0.090530
  C      -2.151440      0.949635      0.021672
  C      -2.830109      0.830653      1.355312
  C      -2.449830     -0.503794      1.958764
  C      -1.758241      2.278647     -0.541253
  C      -1.185904     -0.728844     -1.622956
  C       3.813579     -1.270784     -0.313738
  O       4.811760     -1.003349     -1.283040
  H       4.851485     -0.493733      2.199798
  H       5.586749      0.437827      0.910078
  H       4.448093      1.215584      2.016970
  H       2.312572      1.449225      1.204537
  H       0.875347      1.309356     -0.754795
  H       1.431980     -0.289221     -1.164031
  H       0.369078     -1.247136      0.808972
  H      -0.018852      0.336515      1.426746
  H      -1.958046     -2.289848      0.699012
  H      -3.733329     -1.362034     -1.026017
  H      -4.446886     -1.417547      0.583115
  H      -4.383919      1.159544     -0.263012
  H      -3.058146      1.703398      1.949782
  H      -1.553745     -0.471903      2.573990
  H      -3.254566     -0.933770      2.556787
  H      -0.844472      2.657021     -0.082920
  H      -2.539781      3.016410     -0.360910
  H      -1.601462      2.226276     -1.619194
  H      -0.581808     -0.016082     -2.181181
  H      -2.150180     -0.779753     -2.120110
  H      -0.707096     -1.705648     -1.711930
  H       4.210302     -2.085563      0.292132
  H       2.904422     -1.636884     -0.791156
  H       4.541730     -0.238278     -1.792603
40
Coordinates from ORCA-job ./output/_z_alpha_santalol/_z_alpha_santalol E -115.968491726250
  C       4.664032      0.299786      1.472555
  C       3.541187     -0.079743      0.557720
  C       2.404146      0.610161      0.519417
  C       1.194575      0.360226     -0.324361
  C       0.062289     -0.240519      0.505390
  C      -1.317610     -0.320689     -0.162909
  C      -2.271466     -1.250184      0.631806
  C      -3.637045     -0.989187     -0.009683
  C      -3.589340      0.518535      0.091150
  C      -2.151973      0.949886      0.022120
  C      -2.830216      0.829944      1.355913
  C      -2.449198     -0.504666      1.958699
  C      -1.758972      2.279096     -0.540322
  C      -1.186333     -0.727724     -1.623309
  C       3.813019     -1.271284     -0.312452
  O       4.816153     -1.008081     -1.277837
  H       4.852576     -0.492879      2.198531
  H       5.585882      0.440706      0.908998
  H       4.446868      1.215988      2.017240
  H       2.312811      1.450285      1.203358
  H       0.875577      1.310621     -0.755518
  H       1.431528     -0.288163     -1.165014
  H       0.369421     -1.246104      0.807897
  H      -0.018542      0.337489      1.426012
  H      -1.956914     -2.289794      0.697996
  H      -3.732929     -1.362168     -1.026271
  H      -4.446177     -1.418542      0.582936
  H      -4.384855      1.158693     -0.261465
  H      -3.058931      1.702013      1.951064
  H      -1.553132     -0.472734      2.573903
  H      -3.253758     -0.935001      2.556669
  H      -0.845392      2.657279     -0.081461
  H      -2.540393      3.017020     -0.360378
  H      -1.601750      2.226684     -1.618182
  H      -0.583233     -0.014184     -2.181597
  H      -2.150663     -0.779492     -2.120299
  H      -0.706713     -1.704069     -1.712604
  H       4.204041     -2.087061      0.295761
  H       2.904644     -1.634658     -0.793358
  H       4.546782     -0.247483     -1.794360
40
Coordinates from ORCA-job ./output/_z_alpha_santalol/_z_alpha_santalol E -115.968493430873
  C       4.663652      0.301559      1.471728
  C       3.540623     -0.078449      0.557201
  C       2.403968      0.611951      0.518093
  C       1.194187      0.361874     -0.325438
  C       0.062296     -0.239575      0.504347
  C      -1.317744     -0.320054     -0.163571
  C      -2.270832     -1.250549      0.630992
  C      -3.636797     -0.989757     -0.009565
  C      -3.589540      0.517956      0.092065
  C      -2.152559      0.950006      0.022626
  C      -2.829825      0.828833      1.356692
  C      -2.447971     -0.506082      1.958448
  C      -1.759983      2.279631     -0.539081
  C      -1.186428     -0.726398     -1.624094
  C       3.811721     -1.271795     -0.310639
  O       4.821781     -1.014708     -1.270372
  H       4.852979     -0.491234      2.197323
  H       5.585309      0.443115      0.908145
  H       4.445617      1.217442      2.016544
  H       2.312973      1.452640      1.201406
  H       0.874833      1.312379     -0.756036
  H       1.431060     -0.286200     -1.166332
  H       0.369944     -1.245109      0.806413
  H      -0.018661      0.338223      1.425077
  H      -1.955820     -2.290066      0.696289
  H      -3.733232     -1.362128     -1.026284
  H      -4.445471     -1.419659      0.583249
  H      -4.385632      1.157951     -0.259500
  H      -3.058557      1.700284      1.952709
  H      -1.551570     -0.474152      2.573128
  H      -3.252009     -0.936985      2.556669
  H      -0.846331      2.657408     -0.080082
  H      -2.541477      3.017295     -0.358533
  H      -1.603052      2.227825     -1.616997
  H      -0.583623     -0.012423     -2.182139
  H      -2.150746     -0.778200     -2.121076
  H      -0.706668     -1.702601     -1.713758
  H       4.195014     -2.088861      0.300747
  H       2.904318     -1.631310     -0.796165
  H       4.554250     -0.260076     -1.796474
40
Coordinates from ORCA-job ./output/_z_alpha_santalol/_z_alpha_santalol E -115.968494155966
  C       4.663344      0.303295      1.471007
  C       3.540300     -0.077238      0.556657
  C       2.403996      0.613607      0.516538
  C       1.194097      0.362815     -0.326631
  C       0.062625     -0.239147      0.503305
  C      -1.317756     -0.319646     -0.164146
  C      -2.270250     -1.250879      0.630325
  C      -3.636443     -0.990050     -0.009713
  C      -3.589577      0.517619      0.092876
  C      -2.152865      0.950063      0.023295
  C      -2.829473      0.827897      1.357497
  C      -2.447149     -0.507297      1.958311
  C      -1.760875      2.280211     -0.537683
  C      -1.187194     -0.725322     -1.624912
  C       3.810822     -1.272550     -0.308842
  O       4.825764     -1.020497     -1.264589
  H       4.852671     -0.489336      2.196799
  H       5.585317      0.444443      0.907901
  H       4.444771      1.219367      2.015290
  H       2.313235      1.455229      1.198749
  H       0.874001      1.313111     -0.757142
  H       1.431189     -0.285175     -1.167520
  H       0.370534     -1.244651      0.805195
  H      -0.018344      0.338502      1.424132
  H      -1.955015     -2.290380      0.694896
  H      -3.733014     -1.361616     -1.026743
  H      -4.444856     -1.420682      0.582925
  H      -4.385872      1.157642     -0.258201
  H      -3.057867      1.699016      1.954145
  H      -1.550462     -0.475413      2.572571
  H      -3.250767     -0.938840      2.556619
  H      -0.846980      2.657727     -0.078994
  H      -2.542648      3.017266     -0.355811
  H      -1.604743      2.229417     -1.615758
  H      -0.584786     -0.011130     -2.183075
  H      -2.151932     -0.776891     -2.121173
  H      -0.707471     -1.701482     -1.715268
  H       4.188767     -2.090126      0.305221
  H       2.904072     -1.629558     -0.797397
  H       4.560834     -0.269319     -1.796902
40
Coordinates from ORCA-job ./output/_z_alpha_santalol/_z_alpha_santalol E -115.968494475187
  C       4.663052      0.304447      1.470404
  C       3.539929     -0.076518      0.556332
  C       2.403939      0.614770      0.515420
  C       1.193916      0.363347     -0.327364
  C       0.062876     -0.239069      0.502771
  C      -1.317591     -0.319575     -0.164493
  C      -2.269892     -1.251242      0.629783
  C      -3.636359     -0.990185     -0.009696
  C      -3.589517      0.517434      0.093427
  C      -2.152851      0.949943      0.023697
  C      -2.829099      0.827217      1.357995
  C      -2.446583     -0.508198      1.958143
  C      -1.761323      2.280464     -0.536821
  C      -1.187180     -0.724480     -1.625510
  C       3.809893     -1.273267     -0.307517
  O       4.826995     -1.024160     -1.261610
  H       4.851781     -0.487592      2.197024
  H       5.585427      0.444317      0.907637
  H       4.444738      1.221224      2.013611
  H       2.313466      1.457258      1.196597
  H       0.873080      1.313398     -0.757868
  H       1.431170     -0.284532     -1.168315
  H       0.370961     -1.244547      0.804587
  H      -0.018163      0.338443      1.423694
  H      -1.954652     -2.290778      0.693862
  H      -3.733203     -1.361262     -1.026876
  H      -4.444555     -1.421199      0.582973
  H      -4.385790      1.157612     -0.257453
  H      -3.057082      1.698227      1.954977
  H      -1.549647     -0.476449      2.572071
  H      -3.249924     -0.940187      2.556504
  H      -0.847148      2.657897     -0.078624
  H      -2.543277      3.017051     -0.353739
  H      -1.606011      2.230484     -1.615053
  H      -0.584362     -0.010331     -2.183312
  H      -2.152011     -0.775234     -2.121636
  H      -0.707937     -1.700832     -1.716447
  H       4.185424     -2.090829      0.308070
  H       2.903329     -1.629164     -0.797224
  H       4.564180     -0.273900     -1.796270
