40
Coordinates from ORCA-job ./output/_z_alpha_santalol/_z_alpha_santalol E -115.968494475187
  C           4.66305222751576      0.30444712761116      1.47040446979501
  C           3.53992885689525     -0.07651819519367      0.55633236204082
  C           2.40393854567028      0.61476989654390      0.51542002743450
  C           1.19391606954193      0.36334683573536     -0.32736407929416
  C           0.06287636092723     -0.23906897891281      0.50277116781407
  C          -1.31759095475977     -0.31957528320764     -0.16449302483959
  C          -2.26989157278830     -1.25124215358704      0.62978254029771
  C          -3.63635856197209     -0.99018511425586     -0.00969557042187
  C          -3.58951741568756      0.51743394416953      0.09342736619030
  C          -2.15285070276967      0.94994272383863      0.02369716447802
  C          -2.82909937811475      0.82721661513807      1.35799459507576
  C          -2.44658317295012     -0.50819751927229      1.95814281225266
  C          -1.76132293436785      2.28046446813376     -0.53682092705361
  C          -1.18718036162036     -0.72448019416403     -1.62551002078532
  C           3.80989283085787     -1.27326701155493     -0.30751651610263
  O           4.82699546927572     -1.02415979534337     -1.26160966912134
  H           4.85178112697995     -0.48759156152542      2.19702435621909
  H           5.58542720516523      0.44431707518075      0.90763664321642
  H           4.44473770690638      1.22122435447993      2.01361135119279
  H           2.31346621712906      1.45725771935375      1.19659698763496
  H           0.87308046207078      1.31339758651958     -0.75786753580820
  H           1.43117003947252     -0.28453204551448     -1.16831486021871
  H           0.37096109017347     -1.24454658934771      0.80458721367254
  H          -0.01816316568242      0.33844269152483      1.42369369604096
  H          -1.95465198107057     -2.29077831955521      0.69386246158907
  H          -3.73320300423296     -1.36126208707039     -1.02687562889265
  H          -4.44455518295083     -1.42119931196438      0.58297279557806
  H          -4.38579044486688      1.15761205840951     -0.25745275570727
  H          -3.05708235642468      1.69822729660562      1.95497743584730
  H          -1.54964665801531     -0.47644922642456      2.57207142977106
  H          -3.24992444616529     -0.94018665138168      2.55650396548226
  H          -0.84714759966063      2.65789745931985     -0.07862440055376
  H          -2.54327702417312      3.01705074705816     -0.35373891716555
  H          -1.60601143621069      2.23048441347575     -1.61505285799933
  H          -0.58436201517816     -0.01033090672521     -2.18331203724045
  H          -2.15201123286386     -0.77523367619325     -2.12163594655836
  H          -0.70793743274056     -1.70083181322620     -1.71644716083809
  H           4.18542393309224     -2.09082918336846      0.30807018318482
  H           2.90332862626851     -1.62916422283564     -0.79722406268002
  H           4.56418026732426     -0.27390017247390     -1.79627005352725
