39
Coordinates from ORCA-job ./output/aromadendrene/aromadendrene E -99.912849581083
  C          -0.56684964084517     -3.03541570234880     -0.21001974171763
  C          -1.23694534996496     -1.68148483593596     -0.28032095392114
  C          -2.32601757993233     -1.55151008975241     -1.33345153469444
  C          -2.54854935732420     -0.04402786717162     -1.47520390539209
  C          -1.24009970741472      0.63831411016965     -1.02702398202578
  C          -0.29504734159797     -0.54523829916026     -0.64656085042683
  C           0.65176195919471     -0.09140551093590      0.41731184716971
  C           1.46048163653672      1.11663703706916      0.08804340847065
  C           2.14396542974147     -0.13248485928511      0.56207319312643
  C           2.68615839295545     -0.21321476638392      1.96358290149085
  C           2.97797615183826     -0.87019664560114     -0.45011557485188
  C           1.01860232641029      2.37212881650180      0.77577903352277
  C          -0.32784064441842      2.77666494224629      0.15280100694128
  C          -1.36911732606003      1.67201472565668      0.08802617533076
  C          -2.33413745238007      1.64488134760072      0.99892284316831
  H          -1.27662106070433     -3.81991502951623      0.05287440442452
  H           0.22865551093873     -3.04094437688236      0.53553462946741
  H          -0.12325246792777     -3.29630583958899     -1.17271214501130
  H          -1.67306005776715     -1.44883768897914      0.69805387370814
  H          -3.23809891203048     -2.09006925047804     -1.07496345533078
  H          -1.96184417651872     -1.97471609777053     -2.27354452361219
  H          -3.38567828406266      0.27792324125832     -0.86167196031105
  H          -2.80235223293091      0.23126216801965     -2.49803460567970
  H          -0.79836800719989      1.16468321428849     -1.87426131599524
  H           0.25125750643552     -0.83915974020164     -1.54832368194928
  H           0.15682131279801     -0.00295778489652      1.37882022994910
  H           1.58610352104373      1.26077796199351     -0.98192309553953
  H           2.73495552804133     -1.25035647357835      2.29866047331403
  H           2.06664463139732      0.33482105935403      2.67058949058226
  H           3.69414731852483      0.20129591026870      2.01095035334524
  H           3.04021244301486     -1.92989959470343     -0.19779703851833
  H           2.56311278919099     -0.79162792394692     -1.45318329695918
  H           3.99331061390432     -0.47210099208780     -0.47809144905882
  H           1.72868447710702      3.19424798407192      0.66337293336497
  H           0.88835593621329      2.20157098196507      1.84537667554806
  H          -0.74270384965308      3.62044853142795      0.70446883111683
  H          -0.14048032346312      3.13296886141714     -0.86385524795548
  H          -3.10182455771413      0.88430505086462      1.01937815993899
  H          -2.38232115537673      2.39692642503138      1.77643789497037
