27
Coordinates from ORCA-job ./output/_z_dihydrocarvone/_z_dihydrocarvone E -82.673623596584
  C       3.489423     -0.350229     -0.682278
  C       1.965676     -0.195192     -0.784497
  C       1.508505      1.087959     -0.062899
  C      -0.022496      1.214909     -0.057522
  C      -0.670246     -0.006289      0.628434
  C      -0.271139     -1.316612     -0.076510
  C       1.223984     -1.393279     -0.225246
  O       1.805449     -2.439607      0.024202
  C      -2.184168      0.139754      0.698919
  C      -2.804496      0.165406      1.889397
  C      -3.020611      0.253564     -0.551748
  H       3.800890     -0.472188      0.377597
  H       3.993803      0.545559     -1.103438
  H       3.824204     -1.236805     -1.262082
  H       1.702870     -0.105409     -1.861736
  H       1.878062      1.086954      0.986958
  H       1.940410      1.975708     -0.574473
  H      -0.379717      1.315368     -1.105023
  H      -0.303831      2.140243      0.491105
  H      -0.259118     -0.055423      1.663616
  H      -0.721761     -1.373992     -1.089682
  H      -0.640502     -2.182443      0.516286
  H      -2.248151      0.084915      2.818157
  H      -3.884115      0.267700      1.950995
  H      -2.400343      0.214357     -1.469399
  H      -3.750556     -0.582476     -0.591899
  H      -3.572024      1.217547     -0.547234
27
Coordinates from ORCA-job ./output/_z_dihydrocarvone/_z_dihydrocarvone E -82.681243499256
  C       3.465289     -0.356571     -0.693909
  C       1.956105     -0.190926     -0.777704
  C       1.488114      1.078290     -0.059825
  C      -0.030139      1.211997     -0.048847
  C      -0.676679      0.005831      0.627628
  C      -0.268702     -1.293789     -0.076039
  C       1.222214     -1.398321     -0.242820
  O       1.809739     -2.410282      0.068736
  C      -2.174509      0.141528      0.708671
  C      -2.785883      0.167281      1.889965
  C      -2.984208      0.244409     -0.558709
  H       3.780172     -0.489891      0.339389
  H       3.959039      0.526246     -1.098736
  H       3.791395     -1.222886     -1.265200
  H       1.676851     -0.098606     -1.833309
  H       1.855349      1.067520      0.969748
  H       1.926220      1.950203     -0.547800
  H      -0.388384      1.312839     -1.076568
  H      -0.312040      2.119920      0.486600
  H      -0.284199     -0.041360      1.647015
  H      -0.714905     -1.341626     -1.072948
  H      -0.625538     -2.153061      0.487197
  H      -2.228929      0.092632      2.814651
  H      -3.862348      0.263943      1.957821
  H      -2.362318      0.204603     -1.451175
  H      -3.699213     -0.574401     -0.615398
  H      -3.532490      1.184476     -0.578432
27
Coordinates from ORCA-job ./output/_z_dihydrocarvone/_z_dihydrocarvone E -82.681814312504
  C       3.454060     -0.357460     -0.728528
  C       1.949023     -0.191106     -0.760856
  C       1.485463      1.076122     -0.046519
  C      -0.027523      1.215967     -0.025992
  C      -0.682825      0.013031      0.640581
  C      -0.262238     -1.280491     -0.059913
  C       1.231504     -1.393389     -0.194387
  O       1.810815     -2.416205      0.076886
  C      -2.177983      0.139481      0.713462
  C      -2.798209      0.167147      1.884777
  C      -2.957598      0.236130     -0.572829
  H       3.804439     -0.476046      0.292403
  H       3.933175      0.517276     -1.160468
  H       3.763872     -1.232918     -1.288649
  H       1.626237     -0.113529     -1.804133
  H       1.862147      1.062376      0.977400
  H       1.932690      1.941586     -0.531174
  H      -0.391297      1.323254     -1.048682
  H      -0.309166      2.121004      0.508566
  H      -0.309182     -0.035716      1.663917
  H      -0.686007     -1.313252     -1.065366
  H      -0.626898     -2.148009      0.479880
  H      -2.250387      0.096485      2.814761
  H      -3.874997      0.261506      1.946663
  H      -2.319162      0.196814     -1.449498
  H      -3.669764     -0.580237     -0.648978
  H      -3.510188      1.170177     -0.613327
27
Coordinates from ORCA-job ./output/_z_dihydrocarvone/_z_dihydrocarvone E -82.682142614533
  C       3.450535     -0.356905     -0.748416
  C       1.947559     -0.190582     -0.759061
  C       1.485208      1.072142     -0.038082
  C      -0.024072      1.216980     -0.018141
  C      -0.685499      0.014539      0.641717
  C      -0.262100     -1.276267     -0.060245
  C       1.232805     -1.399053     -0.195287
  O       1.817732     -2.398901      0.136352
  C      -2.181929      0.138674      0.715820
  C      -2.803492      0.167891      1.884859
  C      -2.949295      0.232638     -0.577908
  H       3.817075     -0.473232      0.269870
  H       3.926461      0.517542     -1.189286
  H       3.755295     -1.238308     -1.305588
  H       1.602866     -0.112256     -1.797339
  H       1.864002      1.049197      0.987448
  H       1.942524      1.939733     -0.513795
  H      -0.389723      1.329778     -1.041521
  H      -0.307533      2.123238      0.516990
  H      -0.318057     -0.038138      1.669444
  H      -0.681034     -1.301146     -1.069271
  H      -0.628672     -2.152813      0.469053
  H      -2.257303      0.098585      2.816343
  H      -3.880663      0.260842      1.948817
  H      -2.302997      0.192552     -1.450201
  H      -3.664207     -0.583485     -0.663300
  H      -3.505485      1.166756     -0.629270
27
Coordinates from ORCA-job ./output/_z_dihydrocarvone/_z_dihydrocarvone E -82.682209202387
  C       3.451622     -0.355470     -0.754315
  C       1.947576     -0.192242     -0.758426
  C       1.487576      1.071823     -0.035505
  C      -0.022395      1.216807     -0.016499
  C      -0.684969      0.012513      0.642166
  C      -0.261114     -1.278780     -0.059672
  C       1.235229     -1.397907     -0.184623
  O       1.821193     -2.396411      0.153069
  C      -2.183784      0.138415      0.713359
  C      -2.806779      0.165056      1.883026
  C      -2.952058      0.236655     -0.579152
  H       3.824454     -0.461991      0.263589
  H       3.925753      0.515061     -1.206137
  H       3.754396     -1.242869     -1.304881
  H       1.596114     -0.117752     -1.795354
  H       1.866629      1.049011      0.990740
  H       1.945275      1.939966     -0.511890
  H      -0.387875      1.331395     -1.040621
  H      -0.306119      2.123327      0.519830
  H      -0.317975     -0.040816      1.671128
  H      -0.673504     -1.301909     -1.072029
  H      -0.631377     -2.156036      0.467248
  H      -2.261208      0.093022      2.814848
  H      -3.883978      0.257643      1.947352
  H      -2.305592      0.199449     -1.452431
  H      -3.668014     -0.579272     -0.667331
  H      -3.509074      1.171310     -0.627490
27
Coordinates from ORCA-job ./output/_z_dihydrocarvone/_z_dihydrocarvone E -82.682240572870
  C       3.449971     -0.354749     -0.763685
  C       1.946011     -0.193277     -0.758077
  C       1.489695      1.070701     -0.030818
  C      -0.020387      1.217113     -0.011314
  C      -0.684593      0.010794      0.643390
  C      -0.260839     -1.279282     -0.060889
  C       1.236929     -1.395551     -0.173313
  O       1.824592     -2.387839      0.180510
  C      -2.184462      0.138410      0.710897
  C      -2.809037      0.163679      1.880271
  C      -2.951225      0.237257     -0.581722
  H       3.831117     -0.449439      0.252459
  H       3.921884      0.509752     -1.229185
  H       3.748868     -1.249290     -1.305297
  H       1.584751     -0.121481     -1.791773
  H       1.869677      1.045264      0.995034
  H       1.948370      1.939234     -0.505974
  H      -0.386217      1.336085     -1.034937
  H      -0.303705      2.122175      0.528016
  H      -0.319612     -0.045317      1.673021
  H      -0.664905     -1.296901     -1.076886
  H      -0.636012     -2.157853      0.460271
  H      -2.264478      0.090609      2.812668
  H      -3.886240      0.255903      1.944863
  H      -2.303424      0.200874     -1.454372
  H      -3.667519     -0.578318     -0.672244
  H      -3.509209      1.171446     -0.630913
27
Coordinates from ORCA-job ./output/_z_dihydrocarvone/_z_dihydrocarvone E -82.682256149834
  C       3.448145     -0.354702     -0.770535
  C       1.944508     -0.194256     -0.758758
  C       1.490474      1.069455     -0.028528
  C      -0.019756      1.216551     -0.007458
  C      -0.684562      0.008629      0.643908
  C      -0.260479     -1.280106     -0.063099
  C       1.238311     -1.393386     -0.164769
  O       1.828291     -2.377051      0.208615
  C      -2.184440      0.137214      0.709127
  C      -2.809777      0.161547      1.878159
  C      -2.949874      0.239009     -0.583569
  H       3.834692     -0.438964      0.244337
  H       3.918217      0.504489     -1.247263
  H       3.744475     -1.254954     -1.304011
  H       1.576906     -0.123999     -1.789948
  H       1.871510      1.041795      0.996600
  H       1.948995      1.938275     -0.503053
  H      -0.386299      1.339235     -1.030212
  H      -0.302518      2.119749      0.535042
  H      -0.320898     -0.050025      1.673559
  H      -0.658146     -1.292696     -1.081429
  H      -0.639466     -2.159352      0.453697
  H      -2.265865      0.086817      2.810799
  H      -3.886839      0.255210      1.943069
  H      -2.301191      0.205128     -1.455589
  H      -3.665841     -0.576332     -0.677317
  H      -3.508569      1.172721     -0.631377
27
Coordinates from ORCA-job ./output/_z_dihydrocarvone/_z_dihydrocarvone E -82.682263206984
  C       3.447127     -0.355498     -0.773509
  C       1.943727     -0.194577     -0.759885
  C       1.490964      1.068707     -0.027722
  C      -0.019292      1.216595     -0.004818
  C      -0.684753      0.007639      0.643736
  C      -0.260874     -1.279829     -0.066464
  C       1.238324     -1.391702     -0.161355
  O       1.829482     -2.369054      0.225978
  C      -2.184110      0.136983      0.708590
  C      -2.809486      0.161886      1.877430
  C      -2.949274      0.237927     -0.584309
  H       3.835297     -0.435217      0.240925
  H       3.916586      0.501206     -1.255080
  H       3.742209     -1.258106     -1.303457
  H       1.574434     -0.123524     -1.790094
  H       1.872834      1.038905      0.996835
  H       1.949116      1.937842     -0.501679
  H      -0.386354      1.342418     -1.026789
  H      -0.300919      2.118162      0.540684
  H      -0.321344     -0.053840      1.673079
  H      -0.655589     -1.287929     -1.085741
  H      -0.642509     -2.159317      0.447615
  H      -2.265738      0.086892      2.810111
  H      -3.886496      0.256163      1.942316
  H      -2.300407      0.204945     -1.456066
  H      -3.663839     -0.578452     -0.678245
  H      -3.509115      1.170774     -0.632087
27
Coordinates from ORCA-job ./output/_z_dihydrocarvone/_z_dihydrocarvone E -82.682265819797
  C       3.447076     -0.356157     -0.773554
  C       1.943656     -0.195066     -0.760642
  C       1.490690      1.068382     -0.028838
  C      -0.019572      1.216185     -0.004656
  C      -0.685021      0.006986      0.643212
  C      -0.260932     -1.280072     -0.068339
  C       1.238315     -1.391195     -0.160138
  O       1.830090     -2.365240      0.234187
  C      -2.183981      0.136355      0.708830
  C      -2.809115      0.161625      1.877641
  C      -2.949271      0.238409     -0.584137
  H       3.834717     -0.435391      0.241025
  H       3.916190      0.500546     -1.255435
  H       3.742406     -1.258686     -1.303358
  H       1.575238     -0.123630     -1.791008
  H       1.873193      1.038440      0.995448
  H       1.948142      1.937537     -0.503269
  H      -0.387137      1.342840     -1.026298
  H      -0.300494      2.117200      0.541985
  H      -0.321163     -0.055620      1.672285
  H      -0.655075     -1.286254     -1.087665
  H      -0.643511     -2.159431      0.445187
  H      -2.265327      0.086031      2.810235
  H      -3.886042      0.256983      1.942348
  H      -2.300387      0.208688     -1.455891
  H      -3.661670     -0.579610     -0.679501
  H      -3.511012      1.170142     -0.629655
27
Coordinates from ORCA-job ./output/_z_dihydrocarvone/_z_dihydrocarvone E -82.682266984533
  C       3.447289     -0.356793     -0.772781
  C       1.943816     -0.195214     -0.760940
  C       1.490807      1.068336     -0.029348
  C      -0.019379      1.216409     -0.004646
  C      -0.685109      0.007186      0.642781
  C      -0.261389     -1.279623     -0.069851
  C       1.237763     -1.391018     -0.160560
  O       1.829306     -2.364521      0.235387
  C      -2.183884      0.136763      0.709242
  C      -2.808719      0.163029      1.878134
  C      -2.949677      0.237047     -0.583774
  H       3.833936     -0.438218      0.241989
  H       3.916586      0.501026     -1.252557
  H       3.742918     -1.258096     -1.304496
  H       1.576654     -0.123065     -1.791708
  H       1.873606      1.038284      0.994867
  H       1.948140      1.937483     -0.503898
  H      -0.387100      1.343537     -1.026176
  H      -0.299682      2.117322      0.542494
  H      -0.320753     -0.056366      1.671671
  H      -0.655791     -1.284379     -1.089064
  H      -0.644548     -2.158994      0.443271
  H      -2.264743      0.088039      2.810660
  H      -3.885650      0.258433      1.942627
  H      -2.300799      0.210186     -1.455608
  H      -3.658976     -0.583666     -0.679376
  H      -3.514618      1.166872     -0.628339
