24
Coordinates from ORCA-job ./output/p_cymene/p_cymene E -65.417236335784
  C       3.832881      0.097376     -0.039766
  C       2.333597      0.056604     -0.061004
  C       1.598986      0.493909      1.050256
  C       0.203117      0.422108      1.046370
  C      -0.482374     -0.101056     -0.066405
  C       0.260837     -0.555341     -1.169876
  C       1.656839     -0.482751     -1.164201
  C      -1.997134     -0.186785     -0.084582
  C      -2.631116      1.205401      0.019986
  C      -2.511274     -1.111949      1.024728
  H       4.236060      0.223231     -1.067228
  H       4.221774     -0.849969      0.388415
  H       4.193033      0.948535      0.576586
  H       2.106682      0.891458      1.920491
  H      -0.340403      0.771967      1.914356
  H      -0.238387     -0.970419     -2.036548
  H       2.209799     -0.847001     -2.021336
  H      -2.331421     -0.623292     -1.052409
  H      -3.733909      1.129959     -0.091330
  H      -2.407440      1.675619      1.001006
  H      -2.244919      1.861157     -0.789540
  H      -3.611772     -1.235872      0.936522
  H      -2.282543     -0.698552      2.029898
  H      -2.040912     -2.114335      0.932633
24
Coordinates from ORCA-job ./output/p_cymene/p_cymene E -65.422483891261
  C       3.826287      0.093379     -0.039144
  C       2.325747      0.047568     -0.058563
  C       1.587342      0.487059      1.033246
  C       0.203160      0.413176      1.030794
  C      -0.480709     -0.104359     -0.063705
  C       0.259477     -0.546971     -1.152256
  C       1.645309     -0.473183     -1.150282
  C      -1.988124     -0.185843     -0.077937
  C      -2.624582      1.198029      0.018068
  C      -2.507561     -1.108712      1.021014
  H       4.225903      0.213410     -1.044226
  H       4.224149     -0.830637      0.380461
  H       4.183581      0.925820      0.563987
  H       2.094174      0.893177      1.898502
  H      -0.341064      0.766679      1.895822
  H      -0.244560     -0.954567     -2.018412
  H       2.196776     -0.826134     -2.011658
  H      -2.297261     -0.616716     -1.033271
  H      -3.707138      1.125876     -0.090906
  H      -2.411061      1.664465      0.979355
  H      -2.245927      1.847399     -0.770360
  H      -3.587782     -1.230261      0.935133
  H      -2.289047     -0.705880      2.009579
  H      -2.047087     -2.092771      0.941781
24
Coordinates from ORCA-job ./output/p_cymene/p_cymene E -65.422725688908
  C       3.827725      0.091993     -0.037991
  C       2.327769      0.042044     -0.056555
  C       1.584954      0.482966      1.029262
  C       0.203998      0.409564      1.026376
  C      -0.482202     -0.105896     -0.064049
  C       0.260247     -0.542840     -1.148888
  C       1.643607     -0.469688     -1.146913
  C      -1.988567     -0.186530     -0.076444
  C      -2.626496      1.194722      0.015285
  C      -2.509601     -1.107570      1.020624
  H       4.228774      0.209702     -1.042040
  H       4.234342     -0.827733      0.380970
  H       4.185454      0.923056      0.565537
  H       2.092047      0.892994      1.893323
  H      -0.341023      0.764732      1.891005
  H      -0.246293     -0.945851     -2.016521
  H       2.195296     -0.816174     -2.011431
  H      -2.285637     -0.619377     -1.033686
  H      -3.709079      1.122477     -0.083504
  H      -2.408305      1.667036      0.972276
  H      -2.255049      1.844862     -0.774902
  H      -3.590146     -1.222450      0.941761
  H      -2.286176     -0.707986      2.009071
  H      -2.055638     -2.094054      0.944456
24
Coordinates from ORCA-job ./output/p_cymene/p_cymene E -65.422785731611
  C       3.829179      0.092218     -0.037163
  C       2.330722      0.041139     -0.056177
  C       1.584445      0.480057      1.028797
  C       0.204735      0.407065      1.025401
  C      -0.484093     -0.106387     -0.065027
  C       0.261185     -0.540144     -1.148882
  C       1.643784     -0.467298     -1.146401
  C      -1.990546     -0.187339     -0.076564
  C      -2.629209      1.192230      0.012248
  C      -2.511572     -1.106207      1.020454
  H       4.232425      0.207801     -1.041090
  H       4.241233     -0.825754      0.381984
  H       4.187915      0.922356      0.567888
  H       2.092026      0.889638      1.893198
  H      -0.340667      0.761478      1.890452
  H      -0.246773     -0.940842     -2.017172
  H       2.195916     -0.811153     -2.012044
  H      -2.279456     -0.622614     -1.035922
  H      -3.713180      1.119917     -0.074551
  H      -2.403586      1.670743      0.965205
  H      -2.265799      1.842539     -0.782092
  H      -3.593766     -1.214039      0.949896
  H      -2.280815     -0.709203      2.008995
  H      -2.064105     -2.096200      0.945590
24
Coordinates from ORCA-job ./output/p_cymene/p_cymene E -65.422793004539
  C       3.829152      0.093202     -0.036954
  C       2.331601      0.041630     -0.056227
  C       1.584422      0.478716      1.029756
  C       0.204775      0.405329      1.026285
  C      -0.484787     -0.107118     -0.065212
  C       0.261459     -0.539452     -1.149640
  C       1.644129     -0.466200     -1.146993
  C      -1.991528     -0.188121     -0.077188
  C      -2.629454      1.191465      0.010498
  C      -2.512501     -1.105531      1.020545
  H       4.233262      0.207220     -1.040928
  H       4.242908     -0.823854      0.383249
  H       4.188065      0.923717      0.567847
  H       2.092311      0.886802      1.894690
  H      -0.340753      0.758385      1.891805
  H      -0.246805     -0.939457     -2.018085
  H       2.196494     -0.809400     -2.012757
  H      -2.278294     -0.624425     -1.036992
  H      -3.714137      1.119879     -0.070099
  H      -2.399040      1.672759      0.961196
  H      -2.269722      1.840899     -0.786460
  H      -3.595495     -1.209659      0.954064
  H      -2.277626     -0.709533      2.008774
  H      -2.068433     -2.097252      0.945846
24
Coordinates from ORCA-job ./output/p_cymene/p_cymene E -65.422794036085
  C       3.828813      0.093891     -0.036940
  C       2.331505      0.041868     -0.056238
  C       1.584370      0.477709      1.030533
  C       0.204672      0.403983      1.027111
  C      -0.484844     -0.107686     -0.065059
  C       0.261417     -0.539059     -1.150076
  C       1.644183     -0.465459     -1.147465
  C      -1.991741     -0.188672     -0.077503
  C      -2.628960      1.191261      0.009481
  C      -2.512894     -1.105173      1.020852
  H       4.233164      0.206430     -1.041013
  H       4.243030     -0.822356      0.384714
  H       4.187595      0.925378      0.566671
  H       2.092435      0.884819      1.895775
  H      -0.340891      0.756007      1.892988
  H      -0.246912     -0.938546     -2.018683
  H       2.196600     -0.808044     -2.013398
  H      -2.278277     -0.625463     -1.037159
  H      -3.713908      1.120301     -0.068564
  H      -2.396157      1.673744      0.959030
  H      -2.270481      1.839726     -0.788865
  H      -3.596143     -1.207842      0.955763
  H      -2.276436     -0.709298      2.008782
  H      -2.070140     -2.097519      0.946287
