! wB97X-3c OPT FREQ TightSCF
%pal
  nprocs 40
end
* xyz 0 1
C      3.832881     0.097376    -0.039766
C      2.333597     0.056604    -0.061004
C      1.598986     0.493909     1.050256
C      0.203117     0.422108     1.046370
C     -0.482374    -0.101056    -0.066405
C      0.260837    -0.555341    -1.169876
C      1.656839    -0.482751    -1.164201
C     -1.997134    -0.186785    -0.084582
C     -2.631116     1.205401     0.019986
C     -2.511274    -1.111949     1.024728
H      4.236060     0.223231    -1.067228
H      4.221774    -0.849969     0.388415
H      4.193033     0.948535     0.576586
H      2.106682     0.891458     1.920491
H     -0.340403     0.771967     1.914356
H     -0.238387    -0.970419    -2.036548
H      2.209799    -0.847001    -2.021336
H     -2.331421    -0.623292    -1.052409
H     -3.733909     1.129959    -0.091330
H     -2.407440     1.675619     1.001006
H     -2.244919     1.861157    -0.789540
H     -3.611772    -1.235872     0.936522
H     -2.282543    -0.698552     2.029898
H     -2.040912    -2.114335     0.932633
*
