! wB97X-3c OPT FREQ TightSCF
%pal
  nprocs 40
end
* xyz 0 1
C      2.708256    -2.096968    -1.748056
C      2.098369    -1.279725    -0.642820
C      0.773409    -1.065668    -0.613927
C      0.154617    -0.247478     0.511094
C      1.016836     1.016585     0.872367
C      2.523854     0.863296     0.498051
C      2.958228    -0.600625     0.390113
C      0.471780     2.344143     0.341330
C      1.056549     3.492176     0.727044
C     -0.773639     2.452052    -0.514201
C     -1.397324     1.112889    -0.906881
C     -1.340124     0.101813     0.255743
C     -2.272554    -1.136399     0.000638
C     -2.001772    -2.296734     0.976953
C     -3.761218    -0.750491     0.109850
H      3.810616    -2.164499    -1.637755
H      2.479244    -1.631465    -2.729985
H      2.290742    -3.125705    -1.726081
H      0.152589    -1.490047    -1.396356
H      0.197724    -0.895767     1.413502
H      0.974590     1.100057     1.983024
H      2.726866     1.354608    -0.480678
H      3.154995     1.369918     1.260342
H      2.829034    -1.104961     1.372361
H      4.033032    -0.648344     0.112876
H      0.672335     4.453129     0.396848
H      1.920057     3.491160     1.384698
H     -0.534880     3.016608    -1.442121
H     -1.532391     3.038691     0.050068
H     -0.874586     0.709339    -1.800885
H     -2.440430     1.316343    -1.217788
H     -1.716023     0.606958     1.175354
H     -2.107633    -1.518947    -1.029848
H     -2.043435    -1.940037     2.028490
H     -1.011523    -2.756655     0.780556
H     -2.753940    -3.103906     0.845881
H     -4.061480    -0.049250    -0.692795
H     -3.975775    -0.287110     1.096660
H     -4.404997    -1.648984    -0.003667
*
