! wB97X-3c OPT FREQ TightSCF
%pal
  nprocs 40
end
* xyz 0 1
C     -3.065416    -2.067613     0.410300
C     -1.710586    -1.471266    -0.019635
C     -0.585632    -2.408929     0.468683
C      0.752599    -2.115832    -0.213507
C      1.594498    -1.128050     0.609588
C      1.056220     0.294200     0.812978
C      2.276992     0.055100    -0.097041
C      2.158992     0.156157    -1.630607
C      3.630585     0.450681     0.502220
C     -0.267844     0.674922     0.182518
C     -0.493334     1.918114    -0.260775
C     -1.938909     2.225800    -0.408838
C     -2.641614     0.916413    -0.078640
C     -1.566461    -0.017675     0.517403
C      0.555384     2.989101    -0.402149
H     -3.141156    -2.104792     1.518399
H     -3.912713    -1.470259     0.015553
H     -3.180170    -3.097822     0.010457
H     -1.698658    -1.450672    -1.132822
H     -0.490375    -2.362469     1.576726
H     -0.857236    -3.457545     0.213244
H      0.583997    -1.814062    -1.264210
H      1.335150    -3.060804    -0.264156
H      2.105306    -1.529619     1.511917
H      1.272088     0.714359     1.818901
H      2.628885    -0.735388    -2.096260
H      2.709545     1.050170    -1.989830
H      1.113458     0.243460    -1.987524
H      4.430660    -0.176709     0.056466
H      3.656211     0.322610     1.605928
H      3.838661     1.516311     0.270904
H     -2.230292     3.015685     0.317080
H     -2.163015     2.558697    -1.445373
H     -3.469205     1.081469     0.645633
H     -3.069234     0.502802    -1.019033
H     -1.670624    -0.021503     1.626099
H      0.077594     3.970547    -0.605500
H      1.229128     2.756456    -1.248663
H      1.146522     3.077956     0.533336
*
