39
Coordinates from ORCA-job ./output/alpha_gurjunene/alpha_gurjunene E -99.934924563001
  C          -3.04828865521930     -2.01857255868125      0.39639358286111
  C          -1.68204728578266     -1.46369974461186      0.01510070652255
  C          -0.59799837275968     -2.42229933902106      0.49429514702848
  C           0.77392350564932     -2.17610602830923     -0.11464663475455
  C           1.56722827489931     -1.12628759253175      0.61271024810812
  C           1.05218960491525      0.26950234868576      0.78565987874042
  C           2.26355732786936      0.00947807689981     -0.07134325758582
  C           2.16695390471216      0.15365772366941     -1.56660845249785
  C           3.59948595129714      0.42707701893721      0.48450756585635
  C          -0.26157977021479      0.72745648673891      0.26581352322180
  C          -0.47787547088023      1.94781197287342     -0.22215040711964
  C          -1.93649592043161      2.23753483396975     -0.39162459282301
  C          -2.60783147679561      0.88730655775478     -0.16063230390841
  C          -1.55870204326364     -0.01845758430152      0.51101993923744
  C           0.53072565917872      3.01313196328358     -0.46795349382980
  H          -3.15032510120891     -2.07045444758489      1.48231819576080
  H          -3.86278362485799     -1.40464016801228      0.01674146824209
  H          -3.18322076119497     -3.02604567296423      0.00353914250673
  H          -1.62289603411549     -1.43396801388288     -1.07960093951622
  H          -0.53346928837161     -2.39524806687798      1.58657588434451
  H          -0.91971883567731     -3.43396139156232      0.23706341215489
  H           0.65009756980405     -1.91669090224861     -1.16626740545846
  H           1.35019508263956     -3.10307314680418     -0.10603152256633
  H           2.08638820360411     -1.51542272924190      1.48204377754782
  H           1.28338143827800      0.71002720443136      1.75141019387977
  H           2.80477229613610     -0.57788088626399     -2.06579074345685
  H           2.50150227004535      1.14509084748991     -1.87319049438165
  H           1.15146256604929      0.03061300839682     -1.93238668065417
  H           4.40469982497288     -0.16325528720113      0.04368918999184
  H           3.64052422827224      0.29174712443889      1.56464825268631
  H           3.80449960820701      1.47788965907656      0.27145614835679
  H          -2.24607679400205      2.98157396711532      0.34877344395677
  H          -2.17189197909575      2.66389823929992     -1.36902606720088
  H          -3.52305531577301      0.97139847854326      0.42215154728258
  H          -2.88301134963050      0.45058243898273     -1.12201488531092
  H          -1.72145920954149     -0.04371759863816      1.59761200185686
  H           0.27986072646783      3.91090481102465      0.10070643399299
  H           0.54501149615505      3.30185503022267     -1.52046504803196
  H           1.53226874966388      2.70124436690452     -0.18472675504049
