39
Coordinates from ORCA-job ./output/alpha_gurjunene/alpha_gurjunene E -99.912035799309
  C      -3.065416     -2.067613      0.410300
  C      -1.710586     -1.471266     -0.019635
  C      -0.585632     -2.408929      0.468683
  C       0.752599     -2.115832     -0.213507
  C       1.594498     -1.128050      0.609588
  C       1.056220      0.294200      0.812978
  C       2.276992      0.055100     -0.097041
  C       2.158992      0.156157     -1.630607
  C       3.630585      0.450681      0.502220
  C      -0.267844      0.674922      0.182518
  C      -0.493334      1.918114     -0.260775
  C      -1.938909      2.225800     -0.408838
  C      -2.641614      0.916413     -0.078640
  C      -1.566461     -0.017675      0.517403
  C       0.555384      2.989101     -0.402149
  H      -3.141156     -2.104792      1.518399
  H      -3.912713     -1.470259      0.015553
  H      -3.180170     -3.097822      0.010457
  H      -1.698658     -1.450672     -1.132822
  H      -0.490375     -2.362469      1.576726
  H      -0.857236     -3.457545      0.213244
  H       0.583997     -1.814062     -1.264210
  H       1.335150     -3.060804     -0.264156
  H       2.105306     -1.529619      1.511917
  H       1.272088      0.714359      1.818901
  H       2.628885     -0.735388     -2.096260
  H       2.709545      1.050170     -1.989830
  H       1.113458      0.243460     -1.987524
  H       4.430660     -0.176709      0.056466
  H       3.656211      0.322610      1.605928
  H       3.838661      1.516311      0.270904
  H      -2.230292      3.015685      0.317080
  H      -2.163015      2.558697     -1.445373
  H      -3.469205      1.081469      0.645633
  H      -3.069234      0.502802     -1.019033
  H      -1.670624     -0.021503      1.626099
  H       0.077594      3.970547     -0.605500
  H       1.229128      2.756456     -1.248663
  H       1.146522      3.077956      0.533336
39
Coordinates from ORCA-job ./output/alpha_gurjunene/alpha_gurjunene E -99.928136474434
  C      -3.059307     -2.047936      0.414156
  C      -1.708431     -1.467988     -0.007031
  C      -0.591172     -2.404656      0.455153
  C       0.755132     -2.110868     -0.205940
  C       1.583511     -1.124504      0.586937
  C       1.051409      0.280712      0.792258
  C       2.266499      0.045199     -0.092707
  C       2.176317      0.164498     -1.598207
  C       3.600794      0.447887      0.497194
  C      -0.263389      0.680049      0.204174
  C      -0.485762      1.916856     -0.247668
  C      -1.938555      2.218963     -0.401583
  C      -2.637669      0.898119     -0.067436
  C      -1.560583     -0.033669      0.523445
  C       0.555572      2.980516     -0.425668
  H      -3.134799     -2.093212      1.503565
  H      -3.890029     -1.448661      0.037324
  H      -3.183596     -3.058206      0.018763
  H      -1.691543     -1.429700     -1.102796
  H      -0.499839     -2.365794      1.544923
  H      -0.876917     -3.431455      0.203726
  H       0.595343     -1.797260     -1.236116
  H       1.332201     -3.040039     -0.265606
  H       2.094305     -1.529374      1.454815
  H       1.270477      0.704462      1.769122
  H       2.645522     -0.703675     -2.067053
  H       2.719494      1.051336     -1.933040
  H       1.151890      0.248821     -1.954279
  H       4.401231     -0.158481      0.065409
  H       3.616895      0.315863      1.579148
  H       3.807075      1.499997      0.280334
  H      -2.222446      3.008963      0.301049
  H      -2.167710      2.559019     -1.416153
  H      -3.458772      1.047019      0.634920
  H      -3.053214      0.473502     -0.984141
  H      -1.661766     -0.065916      1.617036
  H       0.088122      3.944082     -0.634966
  H       1.214351      2.742701     -1.261024
  H       1.159365      3.082831      0.477733
39
Coordinates from ORCA-job ./output/alpha_gurjunene/alpha_gurjunene E -99.931623144521
  C      -3.054972     -2.038506      0.416414
  C      -1.704839     -1.466290      0.004015
  C      -0.595010     -2.412469      0.443994
  C       0.757581     -2.118431     -0.195495
  C       1.573817     -1.123594      0.577551
  C       1.051376      0.271564      0.784962
  C       2.261123      0.032603     -0.084899
  C       2.187346      0.171934     -1.580571
  C       3.588309      0.441478      0.497543
  C      -0.263997      0.698590      0.245112
  C      -0.484304      1.925593     -0.226094
  C      -1.941534      2.220989     -0.392875
  C      -2.634057      0.893853     -0.064211
  C      -1.559224     -0.037754      0.532411
  C       0.551053      2.980473     -0.451807
  H      -3.129525     -2.098927      1.502190
  H      -3.881167     -1.429712      0.057531
  H      -3.188136     -3.041164      0.014711
  H      -1.681356     -1.413561     -1.088816
  H      -0.506363     -2.390166      1.532166
  H      -0.894927     -3.428140      0.182817
  H       0.601697     -1.790262     -1.220398
  H       1.333668     -3.042636     -0.264412
  H       2.096275     -1.539481      1.428546
  H       1.282760      0.705767      1.750460
  H       2.671395     -0.676409     -2.063695
  H       2.714068      1.069749     -1.899769
  H       1.166047      0.239101     -1.941090
  H       4.396420     -0.149866      0.067032
  H       3.605149      0.300334      1.575477
  H       3.792926      1.492881      0.293843
  H      -2.230183      3.016157      0.296949
  H      -2.174126      2.572164     -1.398802
  H      -3.469029      1.030789      0.617371
  H      -3.032614      0.456576     -0.977426
  H      -1.670095     -0.090977      1.621748
  H       0.086699      3.939693     -0.667119
  H       1.194191      2.730406     -1.291799
  H       1.183559      3.097651      0.426206
39
Coordinates from ORCA-job ./output/alpha_gurjunene/alpha_gurjunene E -99.932371788329
  C      -3.051781     -2.032077      0.417659
  C      -1.700245     -1.464830      0.007678
  C      -0.596374     -2.420555      0.441327
  C       0.761168     -2.131608     -0.183720
  C       1.568064     -1.121921      0.579913
  C       1.052491      0.271663      0.777730
  C       2.263134      0.023225     -0.083924
  C       2.196579      0.162530     -1.582073
  C       3.591186      0.434492      0.494515
  C      -0.266588      0.714741      0.263643
  C      -0.488780      1.937610     -0.213860
  C      -1.947688      2.226404     -0.384327
  C      -2.631862      0.894019     -0.072815
  C      -1.558707     -0.033548      0.532918
  C       0.539533      2.994157     -0.454522
  H      -3.123762     -2.102209      1.504185
  H      -3.877784     -1.415318      0.070487
  H      -3.192472     -3.032495      0.010929
  H      -1.672920     -1.410102     -1.086633
  H      -0.512298     -2.411120      1.531817
  H      -0.905296     -3.431555      0.170465
  H       0.610482     -1.805272     -1.212126
  H       1.339122     -3.054960     -0.247280
  H       2.091174     -1.538632      1.432789
  H       1.288549      0.712712      1.741303
  H       2.701461     -0.673278     -2.068175
  H       2.702447      1.072989     -1.900225
  H       1.174779      0.203903     -1.949461
  H       4.403496     -0.150602      0.061246
  H       3.613383      0.288273      1.573169
  H       3.795029      1.487625      0.296325
  H      -2.244523      3.017372      0.309007
  H      -2.182947      2.593323     -1.384984
  H      -3.484144      1.018030      0.591417
  H      -3.010882      0.452011     -0.993717
  H      -1.679471     -0.091151      1.622640
  H       0.072034      3.958138     -0.643992
  H       1.162837      2.757189     -1.313969
  H       1.201574      3.100827      0.404410
39
Coordinates from ORCA-job ./output/alpha_gurjunene/alpha_gurjunene E -99.932657178942
  C      -3.049903     -2.028915      0.422346
  C      -1.697635     -1.464126      0.010398
  C      -0.597180     -2.426052      0.442532
  C       0.763928     -2.143956     -0.175398
  C       1.564733     -1.123172      0.583376
  C       1.051604      0.269509      0.773676
  C       2.264540      0.018922     -0.082695
  C       2.195600      0.164772     -1.581512
  C       3.593131      0.433289      0.493674
  C      -0.268667      0.721513      0.270241
  C      -0.489286      1.942554     -0.210576
  C      -1.948165      2.230990     -0.378417
  C      -2.628563      0.895022     -0.086751
  C      -1.559573     -0.028950      0.531084
  C       0.538424      2.996975     -0.459556
  H      -3.118063     -2.103517      1.509759
  H      -3.877026     -1.408455      0.082579
  H      -3.195585     -3.028727      0.013800
  H      -1.669478     -1.412374     -1.085060
  H      -0.516817     -2.426334      1.534519
  H      -0.912239     -3.433982      0.164158
  H       0.618489     -1.826210     -1.208579
  H       1.343704     -3.067173     -0.228635
  H       2.082630     -1.537802      1.442090
  H       1.286376      0.710139      1.739474
  H       2.723598     -0.653556     -2.074578
  H       2.674171      1.092383     -1.894751
  H       1.172551      0.179138     -1.950604
  H       4.408142     -0.143723      0.052928
  H       3.622755      0.278931      1.572021
  H       3.791830      1.489405      0.302369
  H      -2.248840      3.013486      0.324678
  H      -2.184922      2.614617     -1.373427
  H      -3.496978      1.008418      0.559756
  H      -2.986263      0.453219     -1.017683
  H      -1.689577     -0.082677      1.621145
  H       0.073755      3.971346     -0.601574
  H       1.126748      2.781438     -1.350502
  H       1.238051      3.073637      0.373465
39
Coordinates from ORCA-job ./output/alpha_gurjunene/alpha_gurjunene E -99.933003070176
  C      -3.046390     -2.022436      0.419659
  C      -1.690703     -1.461619      0.011521
  C      -0.597125     -2.429977      0.450170
  C       0.769990     -2.160902     -0.157724
  C       1.561521     -1.123608      0.591856
  C       1.050709      0.269484      0.766328
  C       2.266871      0.012209     -0.082805
  C       2.192473      0.152170     -1.582332
  C       3.596221      0.432631      0.487698
  C      -0.270030      0.730316      0.270498
  C      -0.491439      1.952509     -0.206611
  C      -1.951236      2.239248     -0.365180
  C      -2.623467      0.894964     -0.109021
  C      -1.559002     -0.021875      0.525225
  C       0.532908      3.008228     -0.459452
  H      -3.116007     -2.099228      1.507486
  H      -3.872267     -1.398471      0.081589
  H      -3.195963     -3.021974      0.010301
  H      -1.656244     -1.416018     -1.084638
  H      -0.525173     -2.438487      1.543488
  H      -0.919582     -3.434394      0.164660
  H       0.635584     -1.864034     -1.199626
  H       1.351731     -3.084215     -0.187127
  H       2.071556     -1.530108      1.460159
  H       1.282242      0.709994      1.734453
  H       2.755683     -0.642570     -2.076439
  H       2.627847      1.101202     -1.895888
  H       1.169639      0.122114     -1.952806
  H       4.412468     -0.137984      0.039688
  H       3.636046      0.274950      1.565880
  H       3.788471      1.490702      0.297424
  H      -2.256146      3.001546      0.359469
  H      -2.192827      2.651598     -1.348273
  H      -3.514702      0.988284      0.510147
  H      -2.945577      0.458104     -1.056417
  H      -1.700200     -0.067829      1.615146
  H       0.077959      3.997865     -0.487873
  H       1.039748      2.855081     -1.412589
  H       1.304413      3.012531      0.311724
39
Coordinates from ORCA-job ./output/alpha_gurjunene/alpha_gurjunene E -99.933591219170
  C      -3.042826     -2.015555      0.412407
  C      -1.681522     -1.458217      0.014334
  C      -0.597517     -2.433494      0.465807
  C       0.777754     -2.184940     -0.130405
  C       1.558833     -1.126964      0.605321
  C       1.048616      0.266225      0.762083
  C       2.268559      0.005344     -0.078234
  C       2.178964      0.147571     -1.576335
  C       3.598573      0.434825      0.483229
  C      -0.270440      0.738054      0.270645
  C      -0.490033      1.961803     -0.203881
  C      -1.950676      2.250076     -0.346533
  C      -2.613137      0.895244     -0.143255
  C      -1.559220     -0.012619      0.518166
  C       0.532818      3.012701     -0.473113
  H      -3.119841     -2.091265      1.500379
  H      -3.865964     -1.390273      0.068866
  H      -3.193173     -3.015961      0.004047
  H      -1.635475     -1.421484     -1.082140
  H      -0.537366     -2.449543      1.560262
  H      -0.929513     -3.433665      0.172984
  H       0.659500     -1.922510     -1.184015
  H       1.359956     -3.108773     -0.122209
  H       2.058524     -1.521650      1.485801
  H       1.274775      0.703186      1.734406
  H       2.795638     -0.601063     -2.079517
  H       2.540644      1.130228     -1.882552
  H       1.159365      0.049854     -1.944682
  H       4.415424     -0.125109      0.021899
  H       3.654074      0.270569      1.560156
  H       3.779532      1.495952      0.295578
  H      -2.257005      2.978874      0.412665
  H      -2.200655      2.704875     -1.309307
  H      -3.536921      0.961127      0.430965
  H      -2.877987      0.468621     -1.114113
  H      -1.718254     -0.044767      1.606897
  H       0.132018      4.008593     -0.280531
  H       0.858479      2.993025     -1.515558
  H       1.425480      2.881105      0.139252
39
Coordinates from ORCA-job ./output/alpha_gurjunene/alpha_gurjunene E -99.934108780482
  C      -3.040784     -2.010630      0.397625
  C      -1.673455     -1.455155      0.015162
  C      -0.597548     -2.432042      0.483866
  C       0.783626     -2.200435     -0.105406
  C       1.559621     -1.129811      0.618088
  C       1.048355      0.264755      0.763201
  C       2.269740      0.000439     -0.073215
  C       2.165102      0.139804     -1.569635
  C       3.601292      0.435243      0.478971
  C      -0.267818      0.741542      0.266955
  C      -0.487137      1.967338     -0.205045
  C      -1.948739      2.256973     -0.335357
  C      -2.603678      0.894697     -0.168844
  C      -1.558339     -0.006613      0.512283
  C       0.530680      3.017140     -0.484518
  H      -3.132392     -2.079650      1.484744
  H      -3.858916     -1.387946      0.038158
  H      -3.185902     -3.013123     -0.007149
  H      -1.613569     -1.424967     -1.080548
  H      -0.546737     -2.444325      1.578453
  H      -0.934250     -3.431228      0.192379
  H       0.678006     -1.967997     -1.166954
  H       1.363288     -3.125130     -0.065189
  H       2.054862     -1.513208      1.505566
  H       1.271597      0.699309      1.736967
  H       2.823108     -0.568952     -2.077678
  H       2.463877      1.144991     -1.871704
  H       1.151609     -0.013658     -1.933814
  H       4.415356     -0.123040      0.011041
  H       3.666273      0.272986      1.555306
  H       3.777420      1.496314      0.286386
  H      -2.253096      2.957190      0.451181
  H      -2.206774      2.740759     -1.281491
  H      -3.548201      0.942089      0.371959
  H      -2.825439      0.478029     -1.154960
  H      -1.729748     -0.027580      1.599241
  H       0.219889      3.980120     -0.075027
  H       0.662399      3.158466     -1.560673
  H       1.506424      2.767308     -0.070558
39
Coordinates from ORCA-job ./output/alpha_gurjunene/alpha_gurjunene E -99.934581917905
  C      -3.042584     -2.012584      0.381882
  C      -1.672349     -1.455960      0.012367
  C      -0.597256     -2.424764      0.496262
  C       0.783343     -2.195461     -0.098029
  C       1.564836     -1.129149      0.621673
  C       1.050393      0.267843      0.769936
  C       2.267932      0.001913     -0.073749
  C       2.156508      0.131383     -1.569482
  C       3.601895      0.434876      0.472697
  C      -0.263155      0.736371      0.259200
  C      -0.483290      1.963655     -0.211138
  C      -1.945066      2.255136     -0.343864
  C      -2.602628      0.892399     -0.169494
  C      -1.557077     -0.009614      0.509956
  C       0.529791      3.020134     -0.474908
  H      -3.149974     -2.069860      1.467217
  H      -3.855372     -1.397005      0.000930
  H      -3.177177     -3.018167     -0.016450
  H      -1.603787     -1.426575     -1.081811
  H      -0.546171     -2.416745      1.589551
  H      -0.928796     -3.429168      0.220556
  H       0.677194     -1.969809     -1.159335
  H       1.358949     -3.122130     -0.052022
  H       2.068158     -1.507449      1.505011
  H       1.277767      0.705739      1.738925
  H       2.815546     -0.578582     -2.072284
  H       2.451755      1.134926     -1.878808
  H       1.142819     -0.025541     -1.927357
  H       4.410295     -0.135912      0.011952
  H       3.662517      0.286721      1.550146
  H       3.784673      1.491431      0.266314
  H      -2.245129      2.953758      0.444168
  H      -2.202784      2.732521     -1.291871
  H      -3.542092      0.944917      0.377497
  H      -2.829245      0.477288     -1.153836
  H      -1.725907     -0.029159      1.596040
  H       0.248076      3.955307      0.012940
  H       0.598016      3.232032     -1.544312
  H       1.519378      2.735284     -0.126700
39
Coordinates from ORCA-job ./output/alpha_gurjunene/alpha_gurjunene E -99.934816463811
  C      -3.046290     -2.015456      0.371667
  C      -1.674380     -1.459495      0.010981
  C      -0.598052     -2.420009      0.504531
  C       0.780260     -2.187300     -0.095726
  C       1.569229     -1.126973      0.620733
  C       1.052725      0.270889      0.779147
  C       2.263908      0.004894     -0.074934
  C       2.152014      0.133761     -1.570221
  C       3.600744      0.433006      0.467713
  C      -0.259899      0.730848      0.260337
  C      -0.479375      1.956476     -0.214066
  C      -1.940668      2.248970     -0.358544
  C      -2.603247      0.888672     -0.165175
  C      -1.556675     -0.015728      0.509904
  C       0.530799      3.019192     -0.464578
  H      -3.165863     -2.063394      1.455632
  H      -3.854540     -1.404548     -0.025153
  H      -3.173236     -3.023771     -0.020834
  H      -1.600287     -1.428569     -1.082400
  H      -0.543100     -2.390702      1.596748
  H      -0.923086     -3.430327      0.246494
  H       0.668283     -1.956405     -1.154515
  H       1.352876     -3.115843     -0.056807
  H       2.085775     -1.504779      1.495890
  H       1.287635      0.714460      1.742349
  H       2.799860     -0.588078     -2.069717
  H       2.463793      1.130224     -1.884683
  H       1.135795     -0.008401     -1.925065
  H       4.404782     -0.151008      0.017118
  H       3.653839      0.297938      1.546862
  H       3.793868      1.484975      0.250433
  H      -2.239525      2.958805      0.418810
  H      -2.193224      2.710199     -1.314885
  H      -3.533353      0.952107      0.395454
  H      -2.846217      0.468949     -1.142699
  H      -1.722015     -0.038645      1.595736
  H       0.257764      3.936712      0.059605
  H       0.575248      3.266850     -1.526503
  H       1.523835      2.721510     -0.139870
39
Coordinates from ORCA-job ./output/alpha_gurjunene/alpha_gurjunene E -99.934883271439
  C      -3.048273     -2.016734      0.371788
  C      -1.676170     -1.461868      0.012003
  C      -0.598911     -2.419665      0.507842
  C       0.778461     -2.185483     -0.094384
  C       1.570267     -1.126215      0.619811
  C       1.053494      0.271011      0.784768
  C       2.261826      0.006180     -0.074260
  C       2.151444      0.140889     -1.569304
  C       3.600464      0.430889      0.467825
  C      -0.259674      0.729455      0.265710
  C      -0.477426      1.952909     -0.214124
  C      -1.937882      2.245495     -0.368161
  C      -2.602678      0.887172     -0.167734
  C      -1.557727     -0.017653      0.509663
  C       0.531524      3.017038     -0.463693
  H      -3.170664     -2.061464      1.455688
  H      -3.855698     -1.407031     -0.028628
  H      -3.173576     -3.026478     -0.017785
  H      -1.601031     -1.431298     -1.081526
  H      -0.541591     -2.382157      1.599930
  H      -0.921634     -3.432438      0.257203
  H       0.663465     -1.949831     -1.152176
  H       1.350540     -3.114477     -0.060815
  H       2.092991     -1.504986      1.491177
  H       1.291202      0.715737      1.746714
  H       2.798748     -0.580838     -2.069993
  H       2.465332      1.137172     -1.882144
  H       1.135242      0.000234     -1.925531
  H       4.403248     -0.158563      0.021958
  H       3.650278      0.300239      1.547933
  H       3.799597      1.481162      0.247666
  H      -2.239245      2.962878      0.401331
  H      -2.185562      2.699441     -1.329296
  H      -3.531332      0.955217      0.395025
  H      -2.849787      0.463155     -1.142378
  H      -1.724843     -0.041439      1.595394
  H       0.281609      3.917233      0.101053
  H       0.541396      3.301642     -1.517272
  H       1.532576      2.703473     -0.181510
39
Coordinates from ORCA-job ./output/alpha_gurjunene/alpha_gurjunene E -99.934907928024
  C      -3.049189     -2.017890      0.378063
  C      -1.678536     -1.463742      0.012684
  C      -0.599041     -2.420237      0.505902
  C       0.776615     -2.182429     -0.098703
  C       1.570062     -1.125142      0.616847
  C       1.053798      0.271395      0.786167
  C       2.261010      0.007388     -0.075699
  C       2.155643      0.144054     -1.571227
  C       3.600157      0.429314      0.468909
  C      -0.260612      0.728677      0.268215
  C      -0.477592      1.951102     -0.214039
  C      -1.937164      2.242191     -0.377354
  C      -2.604047      0.886539     -0.167578
  C      -1.558656     -0.018741      0.509138
  C       0.530961      3.017552     -0.457477
  H      -3.167510     -2.062801      1.462587
  H      -3.858299     -1.407649     -0.018437
  H      -3.176267     -3.027938     -0.010597
  H      -1.606994     -1.433953     -1.081306
  H      -0.538861     -2.380624      1.598051
  H      -0.919968     -3.434259      0.257932
  H       0.657906     -1.938050     -1.154558
  H       1.349808     -3.110978     -0.074304
  H       2.095490     -1.506276      1.485929
  H       1.291890      0.716488      1.748016
  H       2.796476     -0.584926     -2.070176
  H       2.481259      1.136264     -1.884691
  H       1.138899      0.012279     -1.930438
  H       4.403035     -0.163840      0.027814
  H       3.646349      0.301502      1.549785
  H       3.803832      1.478572      0.247531
  H      -2.243018      2.969704      0.380963
  H      -2.178769      2.686453     -1.344839
  H      -3.528927      0.959753      0.401153
  H      -2.860097      0.457743     -1.137895
  H      -1.725577     -0.043726      1.595134
  H       0.275358      3.916955      0.106312
  H       0.549711      3.302300     -1.510836
  H       1.530867      2.706976     -0.167209
39
Coordinates from ORCA-job ./output/alpha_gurjunene/alpha_gurjunene E -99.934916340600
  C      -3.048982     -2.018034      0.384005
  C      -1.679490     -1.464162      0.013597
  C      -0.598879     -2.421117      0.503755
  C       0.775929     -2.181988     -0.101918
  C       1.569262     -1.125547      0.615691
  C       1.053434      0.270539      0.786156
  C       2.261294      0.007844     -0.075174
  C       2.157811      0.147952     -1.570485
  C       3.599954      0.428548      0.472115
  C      -0.261192      0.728424      0.268574
  C      -0.477437      1.950329     -0.215395
  C      -1.936493      2.240877     -0.381886
  C      -2.604396      0.886605     -0.168632
  C      -1.559072     -0.018401      0.508757
  C       0.531216      3.016488     -0.458586
  H      -3.162581     -2.064449      1.469084
  H      -3.859814     -1.406747     -0.007620
  H      -3.178541     -3.027705     -0.005109
  H      -1.611263     -1.435461     -1.080700
  H      -0.537591     -2.384151      1.596060
  H      -0.920071     -3.434782      0.254139
  H       0.656057     -1.933840     -1.156901
  H       1.350182     -3.109992     -0.081357
  H       2.093385     -1.508357      1.485016
  H       1.289695      0.714265      1.749225
  H       2.798569     -0.580628     -2.070339
  H       2.484483      1.140682     -1.881470
  H       1.141517      0.017116     -1.931672
  H       4.403442     -0.164225      0.031371
  H       3.645242      0.299226      1.552950
  H       3.804359      1.478159      0.252608
  H      -2.244870      2.972744      0.371344
  H      -2.175168      2.681373     -1.352064
  H      -3.528332      0.961796      0.401602
  H      -2.863207      0.455451     -1.137289
  H      -1.726579     -0.042767      1.594791
  H       0.280446      3.912919      0.112314
  H       0.544921      3.307610     -1.510451
  H       1.532764      2.703404     -0.176335
39
Coordinates from ORCA-job ./output/alpha_gurjunene/alpha_gurjunene E -99.934920632338
  C      -3.048548     -2.018203      0.389323
  C      -1.680318     -1.464146      0.014200
  C      -0.598491     -2.421623      0.500648
  C       0.775261     -2.180353     -0.106286
  C       1.568462     -1.125830      0.614591
  C       1.053008      0.270064      0.785759
  C       2.261932      0.008401     -0.074338
  C       2.160555      0.150002     -1.569545
  C       3.599696      0.428025      0.475966
  C      -0.261472      0.728101      0.267629
  C      -0.477509      1.949678     -0.217457
  C      -1.936264      2.239694     -0.385808
  C      -2.605340      0.886804     -0.167294
  C      -1.559059     -0.018216      0.508925
  C       0.531192      3.015692     -0.460265
  H      -3.157294     -2.066670      1.474818
  H      -3.860980     -1.405806      0.002724
  H      -3.180522     -3.027114     -0.000988
  H      -1.615640     -1.435827     -1.080287
  H      -0.536136     -2.388290      1.592987
  H      -0.919961     -3.434615      0.248382
  H       0.654112     -1.928155     -1.160146
  H       1.350528     -3.107813     -0.089915
  H       2.090791     -1.510676      1.484074
  H       1.287177      0.712543      1.749950
  H       2.800395     -0.579473     -2.069307
  H       2.489573      1.142446     -1.878952
  H       1.144586      0.021284     -1.932383
  H       4.403778     -0.164070      0.035343
  H       3.643778      0.296882      1.556599
  H       3.804367      1.478030      0.258477
  H      -2.246207      2.975994      0.362386
  H      -2.172806      2.675468     -1.358758
  H      -3.526833      0.964673      0.406532
  H      -2.869055      0.453561     -1.133657
  H      -1.725691     -0.042415      1.595081
  H       0.280265      3.912136      0.110555
  H       0.545902      3.306783     -1.512167
  H       1.532769      2.703034     -0.177623
39
Coordinates from ORCA-job ./output/alpha_gurjunene/alpha_gurjunene E -99.934923170906
  C      -3.048308     -2.018416      0.393546
  C      -1.681205     -1.463958      0.014723
  C      -0.598174     -2.421984      0.497322
  C       0.774530     -2.178153     -0.110805
  C       1.567770     -1.126087      0.613584
  C       1.052583      0.269742      0.785601
  C       2.262780      0.009002     -0.072890
  C       2.163768      0.151971     -1.568061
  C       3.599556      0.427479      0.480435
  C      -0.261541      0.727729      0.266517
  C      -0.477644      1.948767     -0.219961
  C      -1.936278      2.238521     -0.389206
  C      -2.606589      0.887043     -0.164272
  C      -1.558879     -0.018281      0.509769
  C       0.531022      3.014465     -0.463808
  H      -3.153034     -2.068883      1.479313
  H      -3.861979     -1.405071      0.011127
  H      -3.182154     -3.026494      0.001803
  H      -1.619671     -1.435225     -1.079891
  H      -0.534687     -2.392175      1.589634
  H      -0.919844     -3.434243      0.242321
  H       0.651968     -1.922048     -1.163451
  H       1.350490     -3.105257     -0.098619
  H       2.088311     -1.513188      1.483048
  H       1.284944      0.711143      1.750692
  H       2.802642     -0.578463     -2.067581
  H       2.495434      1.143996     -1.875906
  H       1.148097      0.025954     -1.932448
  H       4.404200     -0.163739      0.039715
  H       3.642114      0.294145      1.560795
  H       3.804434      1.477908      0.265263
  H      -2.246528      2.979087      0.354501
  H      -2.171755      2.669224     -1.364700
  H      -3.524871      0.968124      0.414157
  H      -2.876239      0.451878     -1.128024
  H      -1.723705     -0.042811      1.596130
  H       0.280203      3.911328      0.106351
  H       0.545627      3.304838     -1.515892
  H       1.532614      2.702133     -0.181061
39
Coordinates from ORCA-job ./output/alpha_gurjunene/alpha_gurjunene E -99.934924563001
  C      -3.048289     -2.018573      0.396394
  C      -1.682047     -1.463700      0.015101
  C      -0.597998     -2.422299      0.494295
  C       0.773924     -2.176106     -0.114647
  C       1.567228     -1.126288      0.612710
  C       1.052190      0.269502      0.785660
  C       2.263557      0.009478     -0.071343
  C       2.166954      0.153658     -1.566608
  C       3.599486      0.427077      0.484508
  C      -0.261580      0.727456      0.265814
  C      -0.477875      1.947812     -0.222150
  C      -1.936496      2.237535     -0.391625
  C      -2.607831      0.887307     -0.160632
  C      -1.558702     -0.018458      0.511020
  C       0.530726      3.013132     -0.467953
  H      -3.150325     -2.070454      1.482318
  H      -3.862784     -1.404640      0.016741
  H      -3.183221     -3.026046      0.003539
  H      -1.622896     -1.433968     -1.079601
  H      -0.533469     -2.395248      1.586576
  H      -0.919719     -3.433961      0.237063
  H       0.650098     -1.916691     -1.166267
  H       1.350195     -3.103073     -0.106032
  H       2.086388     -1.515423      1.482044
  H       1.283381      0.710027      1.751410
  H       2.804772     -0.577881     -2.065791
  H       2.501502      1.145091     -1.873190
  H       1.151463      0.030613     -1.932387
  H       4.404700     -0.163255      0.043689
  H       3.640524      0.291747      1.564648
  H       3.804500      1.477890      0.271456
  H      -2.246077      2.981574      0.348773
  H      -2.171892      2.663898     -1.369026
  H      -3.523055      0.971398      0.422152
  H      -2.883011      0.450582     -1.122015
  H      -1.721459     -0.043718      1.597612
  H       0.279861      3.910905      0.100706
  H       0.545011      3.301855     -1.520465
  H       1.532269      2.701244     -0.184727
