! wB97X-3c OPT FREQ TightSCF
%pal
  nprocs 40
end
* xyz 0 1
C      1.906581     0.253234    -2.857287
C      0.824317     0.100860    -1.825542
C      1.111458     0.304820    -0.463039
C      0.082852     0.170142     0.488718
C     -1.215097    -0.202104     0.099316
C     -1.478493    -0.428956    -1.262400
C     -0.469609    -0.276187    -2.214264
C     -2.308917    -0.345389     1.141844
C     -3.440693     0.659647     0.897092
C     -2.845629    -1.781016     1.186483
O      2.413281     0.679246    -0.091177
C      3.026022     0.371769     1.130260
O      2.575536    -0.542895     1.872023
C      4.296643     1.057615     1.500605
H      2.686715    -0.519904    -2.694709
H      1.508298     0.141166    -3.888224
H      2.368305     1.259611    -2.772554
H      0.283136     0.382475     1.530258
H     -2.468028    -0.717681    -1.592143
H     -0.701112    -0.451987    -3.257556
H     -1.891926    -0.124732     2.149959
H     -4.183325     0.603827     1.721479
H     -3.961808     0.451475    -0.061376
H     -3.032374     1.692553     0.867450
H     -3.354103    -2.049317     0.236245
H     -2.011450    -2.493725     1.361721
H     -3.574092    -1.888536     2.018359
H      4.330307     2.066018     1.037607
H      5.158634     0.460551     1.137273
H      4.364572     1.167419     2.603580
*
