30
Coordinates from ORCA-job ./output/carvacrol_acetate/carvacrol_acetate E -110.151942471069
  C           2.10038824956231      0.22169075639222     -2.44247646454810
  C           0.91634778805770      0.10795182545275     -1.53798502565570
  C           0.98510384398694      0.47587782020414     -0.20702486998829
  C          -0.08952452008744      0.37226706570674      0.64960666732955
  C          -1.30234691826345     -0.12002936635065      0.19912555856043
  C          -1.39162826129055     -0.49596388460341     -1.13419723026087
  C          -0.30473955444558     -0.38151846811078     -1.97916677128470
  C          -2.47890743908817     -0.24150778797279      1.13626092540065
  C          -3.64206443655695      0.63418992858521      0.69130254711936
  C          -2.91141656446511     -1.69190777150223      1.30131139290715
  O           2.15725000854167      1.03563385935541      0.29154189183737
  C           3.16532259659780      0.20449931610338      0.62997623572554
  O           3.10067592185999     -0.98471241931315      0.52662783242449
  C           4.34073399566375      0.97600459234327      1.13346523096097
  H           2.85280916876581     -0.52354575679642     -2.18601184641017
  H           1.80942007561500      0.06561844511662     -3.47834279101394
  H           2.56290135682641      1.20426780712789     -2.36282433234119
  H           0.03344956546867      0.68358073192624      1.67794768310525
  H          -2.32247048326261     -0.88320699603626     -1.52596426337060
  H          -0.40214933476096     -0.68040064172063     -3.01463675116480
  H          -2.14717074267735      0.11857802143202      2.11277392371412
  H          -4.45776913548824      0.58490603845518      1.41240872474882
  H          -4.03240390474217      0.30981327083982     -0.27345514411612
  H          -3.33494047467251      1.67450380484815      0.59264294090587
  H          -3.27586778526760     -2.10328799586081      0.35988340394626
  H          -2.08150548732074     -2.31276518217821      1.63572134813435
  H          -3.71611834314522     -1.77205009067796      2.03197937590427
  H           4.04477702112427      1.58282270543640      1.98573515700302
  H           4.69334487702904      1.65087526825944      0.35685447938210
  H           5.12849991643528      0.28781410353841      1.41692117104489
