31
Coordinates from ORCA-job ./output/3_decanone/3_decanone E -85.133916993264
  C           4.67901654598009      1.73144203828231     -0.53026643675898
  C           3.89566568498190      0.61870425700746      0.13855040207204
  C           2.42747506527636      0.61497535649396     -0.24426925809267
  C           1.63474820205036     -0.49477795958582      0.41972683283707
  C           0.16687138118508     -0.49366879548716      0.03781302229568
  C          -0.61787226997857     -1.61067918801613      0.70132075212449
  C          -2.08590939308460     -1.60447258549026      0.33038154152513
  C          -2.88241522954536     -0.47803841191680      0.93946985324497
  O          -2.46435883193271      0.18318424172511      1.85809232371422
  C          -4.23402274371661     -0.19783865679050      0.33318206190769
  C          -4.10978738070233      0.87997488283169     -0.73475909709948
  H           5.72854201613388      1.71383234857754     -0.23833467995945
  H           4.27695896229864      2.70938931751698     -0.26312446833171
  H           4.63539681888861      1.64423675526085     -1.61656516604370
  H           4.33758850493302     -0.34714808736984     -0.11983457346147
  H           3.98335282330750      0.71015284435133      1.22416160548322
  H           1.98418580464790      1.58083659124821      0.01546506933353
  H           2.33840798413739      0.52472359528637     -1.33127777299625
  H           1.72216227056053     -0.40222322384198      1.50590719188965
  H           2.07775487198764     -1.46127971369912      0.16069102964116
  H          -0.27468955058224      0.46747032356076      0.30935278342824
  H           0.07655137370788     -0.58398850964301     -1.04946367218320
  H          -0.52765368904473     -1.52452015085671      1.78497497225388
  H          -0.18598066759707     -2.57396627300631      0.42176635485452
  H          -2.22272408508908     -1.58111113522642     -0.75405358287677
  H          -2.57728039996269     -2.52481368741953      0.66142585992265
  H          -4.64785733052833     -1.10931860364603     -0.09947812348232
  H          -4.89499538732845      0.13976738192491      1.12971574407064
  H          -5.07939199864694      1.09291433299025     -1.18068851829881
  H          -3.72422582358507      1.80117564635669     -0.30135782416586
  H          -3.43551452875201      0.57506506858119     -1.53496022684810
