! wB97X-3c OPT FREQ TightSCF
%pal
  nprocs 40
end
* xyz 0 1
C      4.317776     1.829604    -0.786576
C      3.656471     0.708886     0.010313
C      2.162161     0.605124    -0.315309
C      1.501137    -0.521633     0.487399
C      0.006736    -0.625523     0.161380
C     -0.659962    -1.741085     0.978631
C     -2.124802    -1.965387     0.575560
C     -2.995862    -0.770709     0.877956
O     -3.066959    -0.354011     2.024931
C     -3.821022    -0.113399    -0.198138
C     -3.351024     1.313442    -0.462117
H      5.397054     1.880811    -0.530639
H      3.848044     2.806136    -0.541978
H      4.219914     1.637851    -1.876412
H      4.161039    -0.251504    -0.233442
H      3.790697     0.911832     1.095280
H      1.665086     1.570425    -0.072753
H      2.035516     0.405632    -1.402430
H      1.627139    -0.321980     1.574565
H      1.998852    -1.486504     0.244855
H     -0.481280     0.344004     0.398219
H     -0.120082    -0.833678    -0.923935
H     -0.600981    -1.500356     2.062961
H     -0.108543    -2.692712     0.813942
H     -2.172170    -2.228460    -0.503164
H     -2.519198    -2.835497     1.143019
H     -3.764476    -0.689411    -1.146367
H     -4.884856    -0.096093     0.122371
H     -4.009843     1.785763    -1.220916
H     -3.394580     1.917562     0.469197
H     -2.311983     1.310870    -0.852839
*
