31
Coordinates from ORCA-job ./output/3_decanone/3_decanone E -85.122456482013
  C       4.317776      1.829604     -0.786576
  C       3.656471      0.708886      0.010313
  C       2.162161      0.605124     -0.315309
  C       1.501137     -0.521633      0.487399
  C       0.006736     -0.625523      0.161380
  C      -0.659962     -1.741085      0.978631
  C      -2.124802     -1.965387      0.575560
  C      -2.995862     -0.770709      0.877956
  O      -3.066959     -0.354011      2.024931
  C      -3.821022     -0.113399     -0.198138
  C      -3.351024      1.313442     -0.462117
  H       5.397054      1.880811     -0.530639
  H       3.848044      2.806136     -0.541978
  H       4.219914      1.637851     -1.876412
  H       4.161039     -0.251504     -0.233442
  H       3.790697      0.911832      1.095280
  H       1.665086      1.570425     -0.072753
  H       2.035516      0.405632     -1.402430
  H       1.627139     -0.321980      1.574565
  H       1.998852     -1.486504      0.244855
  H      -0.481280      0.344004      0.398219
  H      -0.120082     -0.833678     -0.923935
  H      -0.600981     -1.500356      2.062961
  H      -0.108543     -2.692712      0.813942
  H      -2.172170     -2.228460     -0.503164
  H      -2.519198     -2.835497      1.143019
  H      -3.764476     -0.689411     -1.146367
  H      -4.884856     -0.096093      0.122371
  H      -4.009843      1.785763     -1.220916
  H      -3.394580      1.917562      0.469197
  H      -2.311983      1.310870     -0.852839
31
Coordinates from ORCA-job ./output/3_decanone/3_decanone E -85.130199472412
  C       4.326329      1.833082     -0.781339
  C       3.653003      0.719196      0.009160
  C       2.166378      0.603069     -0.299888
  C       1.489743     -0.516599      0.482310
  C       0.004061     -0.634862      0.166366
  C      -0.670067     -1.746689      0.960167
  C      -2.129027     -1.965485      0.568334
  C      -2.994512     -0.772699      0.885574
  O      -3.006239     -0.320016      2.009366
  C      -3.822734     -0.118729     -0.189788
  C      -3.344466      1.299223     -0.476391
  H       5.386605      1.891942     -0.533959
  H       3.869878      2.796393     -0.552988
  H       4.236599      1.652444     -1.852752
  H       4.144720     -0.229067     -0.220284
  H       3.787101      0.906970      1.076936
  H       1.677505      1.551892     -0.063662
  H       2.036354      0.424626     -1.370771
  H       1.613864     -0.332324      1.552173
  H       1.983651     -1.464181      0.252393
  H      -0.480470      0.316458      0.398644
  H      -0.122941     -0.822615     -0.903902
  H      -0.615614     -1.519876      2.025604
  H      -0.129634     -2.681955      0.798573
  H      -2.192825     -2.225309     -0.489453
  H      -2.523822     -2.811175      1.134879
  H      -3.797978     -0.704007     -1.109596
  H      -4.856997     -0.090442      0.154362
  H      -3.997654      1.770360     -1.209350
  H      -3.358152      1.897295      0.432709
  H      -2.332660      1.293078     -0.879863
31
Coordinates from ORCA-job ./output/3_decanone/3_decanone E -85.130734440472
  C       4.387681      1.814548     -0.749149
  C       3.697286      0.705041      0.026791
  C       2.215598      0.598283     -0.287242
  C       1.520075     -0.516052      0.475774
  C       0.039637     -0.624216      0.154468
  C      -0.651212     -1.732918      0.928747
  C      -2.111802     -1.923031      0.542314
  C      -2.957977     -0.720441      0.883955
  O      -2.932383     -0.261094      2.000958
  C      -3.895399     -0.140341     -0.146151
  C      -3.495684      1.280624     -0.518431
  H       5.444633      1.869544     -0.497724
  H       3.939377      2.780911     -0.525394
  H       4.306673      1.645997     -1.821534
  H       4.180876     -0.246968     -0.197175
  H       3.826066      0.877696      1.096177
  H       1.731723      1.548984     -0.053989
  H       2.087826      0.435653     -1.359639
  H       1.640969     -0.347090      1.547245
  H       2.008552     -1.465885      0.249393
  H      -0.439644      0.328333      0.385573
  H      -0.084733     -0.795555     -0.917548
  H      -0.594863     -1.522220      1.995465
  H      -0.126516     -2.673347      0.758786
  H      -2.194562     -2.169918     -0.514557
  H      -2.522411     -2.763272      1.102756
  H      -3.930456     -0.764313     -1.036424
  H      -4.892166     -0.132169      0.292086
  H      -4.224234      1.708042     -1.202225
  H      -3.447738      1.905314      0.368794
  H      -2.525192      1.299859     -1.008534
31
Coordinates from ORCA-job ./output/3_decanone/3_decanone E -85.131369417033
  C       4.401706      1.817217     -0.715498
  C       3.703545      0.710340      0.048004
  C       2.230831      0.592290     -0.280124
  C       1.524936     -0.517876      0.466925
  C       0.053590     -0.635431      0.133357
  C      -0.646033     -1.742597      0.891593
  C      -2.108633     -1.902335      0.517192
  C      -2.934734     -0.693069      0.897974
  O      -2.785330     -0.163277      1.969362
  C      -3.936637     -0.143128     -0.091429
  C      -3.536124      1.249161     -0.553469
  H       5.455072      1.885597     -0.454380
  H       3.947594      2.785370     -0.507843
  H       4.338894      1.653756     -1.790665
  H       4.193102     -0.243715     -0.157800
  H       3.817868      0.874896      1.121153
  H       1.737001      1.543207     -0.063489
  H       2.113083      0.437135     -1.355996
  H       1.635853     -0.357309      1.542044
  H       2.021322     -1.468636      0.256114
  H      -0.434824      0.317161      0.350645
  H      -0.061450     -0.798011     -0.942087
  H      -0.585212     -1.547561      1.961662
  H      -0.134983     -2.689101      0.712055
  H      -2.219965     -2.129912     -0.540860
  H      -2.535648     -2.738669      1.072556
  H      -4.056937     -0.813949     -0.937982
  H      -4.890144     -0.091428      0.433037
  H      -4.302319      1.673881     -1.196684
  H      -3.401700      1.904548      0.302683
  H      -2.603726      1.231442     -1.114487
31
Coordinates from ORCA-job ./output/3_decanone/3_decanone E -85.131849470131
  C       4.443554      1.807975     -0.685159
  C       3.734391      0.703105      0.068787
  C       2.264906      0.589114     -0.280478
  C       1.546368     -0.517528      0.461421
  C       0.077403     -0.628299      0.111012
  C      -0.635757     -1.732059      0.864317
  C      -2.100859     -1.864796      0.488341
  C      -2.919400     -0.659036      0.899545
  O      -2.713714     -0.103500      1.949565
  C      -3.997545     -0.154523     -0.032721
  C      -3.634901      1.216856     -0.578195
  H       5.495713      1.875093     -0.411627
  H       3.988782      2.778777     -0.483402
  H       4.393450      1.646176     -1.762820
  H       4.225893     -0.253506     -0.128884
  H       3.834889      0.866921      1.145123
  H       1.769531      1.543550     -0.075571
  H       2.160650      0.431418     -1.358996
  H       1.646864     -0.357366      1.539185
  H       2.041645     -1.472445      0.258650
  H      -0.410871      0.328165      0.318617
  H      -0.026882     -0.792552     -0.966902
  H      -0.571373     -1.545632      1.937133
  H      -0.137116     -2.685641      0.677965
  H      -2.220438     -2.063550     -0.576410
  H      -2.541001     -2.712863      1.019609
  H      -4.175066     -0.862497     -0.840104
  H      -4.910719     -0.082166      0.559777
  H      -4.443530      1.615700     -1.187622
  H      -3.446150      1.907574      0.241098
  H      -2.738717      1.177534     -1.197688
31
Coordinates from ORCA-job ./output/3_decanone/3_decanone E -85.133069207433
  C       4.591244      1.764985     -0.585729
  C       3.840768      0.663999      0.130183
  C       2.379248      0.585922     -0.276544
  C       1.615208     -0.511156      0.441214
  C       0.151617     -0.578939      0.044272
  C      -0.609709     -1.673829      0.772254
  C      -2.077121     -1.715723      0.385702
  C      -2.881432     -0.534833      0.887582
  O      -2.528914      0.110455      1.847016
  C      -4.168089     -0.197848      0.170961
  C      -3.979936      1.069437     -0.643923
  H       5.639576      1.808673     -0.279974
  H       4.148472      2.744357     -0.383235
  H       4.570323      1.620983     -1.669857
  H       4.324068     -0.301288     -0.061391
  H       3.906519      0.813907      1.214268
  H       1.894918      1.552406     -0.088973
  H       2.309780      0.431848     -1.361184
  H       1.689209     -0.362586      1.525392
  H       2.093387     -1.479445      0.245645
  H      -0.322300      0.389550      0.239966
  H       0.074975     -0.737565     -1.039632
  H      -0.535763     -1.523066      1.852449
  H      -0.152953     -2.645366      0.556581
  H      -2.209904     -1.812444     -0.696122
  H      -2.563882     -2.599054      0.821240
  H      -4.479712     -1.030577     -0.463457
  H      -4.934025     -0.039826      0.934709
  H      -4.907180      1.358540     -1.140915
  H      -3.666455      1.886945      0.007317
  H      -3.211938      0.941538     -1.412252
31
Coordinates from ORCA-job ./output/3_decanone/3_decanone E -85.133413471285
  C       4.692571      1.724490     -0.522499
  C       3.906531      0.633098      0.169751
  C       2.452771      0.585635     -0.271997
  C       1.651794     -0.498652      0.426683
  C       0.194765     -0.532490     -0.001097
  C      -0.603322     -1.618345      0.703646
  C      -2.067300     -1.604957      0.310232
  C      -2.865055     -0.450656      0.871885
  O      -2.440521      0.259310      1.754070
  C      -4.245823     -0.227522      0.302960
  C      -4.205175      0.945412     -0.661180
  H       5.735796      1.745290     -0.195551
  H       4.265023      2.711150     -0.321038
  H       4.690661      1.589169     -1.608281
  H       4.376527     -0.339960     -0.017024
  H       3.949880      0.776085      1.256188
  H       1.983159      1.561214     -0.093584
  H       2.405751      0.434157     -1.358413
  H       1.706741     -0.355855      1.512957
  H       2.113451     -1.476241      0.235972
  H      -0.264819      0.442994      0.190967
  H       0.137586     -0.684873     -1.087292
  H      -0.527177     -1.491911      1.787243
  H      -0.174881     -2.598638      0.469164
  H      -2.201020     -1.626755     -0.777654
  H      -2.582681     -2.506300      0.673119
  H      -4.596908     -1.133879     -0.197739
  H      -4.917533     -0.007312      1.136257
  H      -5.191953      1.147039     -1.081510
  H      -3.861237      1.841658     -0.141357
  H      -3.517604      0.757645     -1.491315
31
Coordinates from ORCA-job ./output/3_decanone/3_decanone E -85.133741677490
  C       4.695857      1.720433     -0.532074
  C       3.906908      0.629267      0.162864
  C       2.450373      0.590856     -0.269343
  C       1.648885     -0.493448      0.429671
  C       0.189764     -0.519555      0.008331
  C      -0.607471     -1.608284      0.709606
  C      -2.071334     -1.606553      0.317969
  C      -2.877495     -0.468158      0.889057
  O      -2.461570      0.234349      1.780475
  C      -4.245956     -0.232989      0.297937
  C      -4.190593      0.942427     -0.665848
  H       5.738974      1.730189     -0.210577
  H       4.275451      2.706117     -0.321068
  H       4.684990      1.586232     -1.616050
  H       4.369651     -0.342931     -0.034603
  H       3.957707      0.771745      1.246983
  H       1.988482      1.565548     -0.078420
  H       2.397679      0.441666     -1.353729
  H       1.708065     -0.350412      1.513706
  H       2.104907     -1.469517      0.229254
  H      -0.264567      0.452920      0.214408
  H       0.128450     -0.667811     -1.076138
  H      -0.529478     -1.482528      1.791793
  H      -0.175726     -2.584355      0.471990
  H      -2.198582     -1.611168     -0.770151
  H      -2.574312     -2.518677      0.662394
  H      -4.593473     -1.132696     -0.214111
  H      -4.932451     -0.014929      1.116838
  H      -5.170599      1.139874     -1.099734
  H      -3.858775      1.839675     -0.143325
  H      -3.493762      0.752712     -1.484539
31
Coordinates from ORCA-job ./output/3_decanone/3_decanone E -85.133862620659
  C       4.706376      1.713873     -0.527940
  C       3.910630      0.623291      0.162243
  C       2.453277      0.596436     -0.259175
  C       1.647165     -0.488636      0.428842
  C       0.188912     -0.506307      0.012701
  C      -0.609220     -1.600321      0.698358
  C      -2.072131     -1.597471      0.311345
  C      -2.873633     -0.463788      0.895351
  O      -2.444941      0.246119      1.771679
  C      -4.247578     -0.233309      0.315720
  C      -4.203426      0.917213     -0.679417
  H       5.748567      1.712175     -0.210712
  H       4.294746      2.699279     -0.307275
  H       4.689734      1.586782     -1.610949
  H       4.363642     -0.349201     -0.046674
  H       3.968508      0.756765      1.245346
  H       1.999671      1.570075     -0.052287
  H       2.394130      0.460381     -1.343300
  H       1.708829     -0.354010      1.512235
  H       2.098051     -1.463029      0.217958
  H      -0.261600      0.462896      0.236681
  H       0.124566     -0.638954     -1.071908
  H      -0.530311     -1.483989      1.780000
  H      -0.178296     -2.572798      0.451308
  H      -2.198601     -1.584087     -0.774900
  H      -2.571650     -2.513176      0.642929
  H      -4.610260     -1.140171     -0.168320
  H      -4.919334      0.009881      1.137758
  H      -5.189255      1.103510     -1.100632
  H      -3.862778      1.827040     -0.188963
  H      -3.523793      0.703530     -1.504440
31
Coordinates from ORCA-job ./output/3_decanone/3_decanone E -85.133875417155
  C       4.708769      1.712078     -0.529759
  C       3.913132      0.619355      0.157883
  C       2.453103      0.600762     -0.254761
  C       1.647717     -0.487618      0.429275
  C       0.187521     -0.499170      0.019344
  C      -0.609260     -1.597270      0.700213
  C      -2.072737     -1.595328      0.313218
  C      -2.877359     -0.463578      0.898243
  O      -2.452698      0.243556      1.778786
  C      -4.250007     -0.233427      0.316549
  C      -4.202517      0.909341     -0.687480
  H       5.752402      1.704129     -0.217570
  H       4.301329      2.697082     -0.299972
  H       4.685733      1.591379     -1.613325
  H       4.361426     -0.353032     -0.061322
  H       3.978348      0.745624      1.241398
  H       2.004021      1.573877     -0.036053
  H       2.387029      0.473698     -1.339537
  H       1.714186     -0.359829      1.513170
  H       2.095584     -1.461348      0.209243
  H      -0.259747      0.468650      0.254073
  H       0.118304     -0.623114     -1.065971
  H      -0.529986     -1.485336      1.782311
  H      -0.176890     -2.567924      0.448841
  H      -2.197655     -1.578474     -0.773190
  H      -2.569682     -2.513407      0.641490
  H      -4.615417     -1.142132     -0.162142
  H      -4.921785      0.018020      1.135923
  H      -5.188371      1.093316     -1.109640
  H      -3.860623      1.822744     -0.204656
  H      -3.523873      0.687376     -1.511018
31
Coordinates from ORCA-job ./output/3_decanone/3_decanone E -85.133887968871
  C       4.708645      1.711556     -0.531845
  C       3.914548      0.614161      0.150241
  C       2.450273      0.607895     -0.247049
  C       1.647104     -0.487085      0.428964
  C       0.183720     -0.489769      0.030268
  C      -0.610085     -1.595116      0.702664
  C      -2.074291     -1.594203      0.316689
  C      -2.881192     -0.464002      0.904331
  O      -2.460130      0.237692      1.790893
  C      -4.251183     -0.230375      0.318744
  C      -4.193357      0.896386     -0.702866
  H       5.754871      1.695192     -0.228451
  H       4.307148      2.695467     -0.286962
  H       4.675493      1.603064     -1.616525
  H       4.355796     -0.357602     -0.086102
  H       3.992119      0.726415      1.234634
  H       2.007654      1.579504     -0.008630
  H       2.372058      0.497782     -1.333021
  H       1.722144     -0.372837      1.513973
  H       2.090838     -1.459248      0.193444
  H      -0.259110      0.475694      0.282311
  H       0.105835     -0.598008     -1.056297
  H      -0.530274     -1.491537      1.785750
  H      -0.175749     -2.562909      0.443462
  H      -2.198857     -1.573956     -0.769782
  H      -2.567880     -2.514575      0.643465
  H      -4.625433     -1.142214     -0.147276
  H      -4.920441      0.040550      1.133992
  H      -5.178547      1.081093     -1.126641
  H      -3.843978      1.814853     -0.235006
  H      -3.517740      0.656129     -1.523807
31
Coordinates from ORCA-job ./output/3_decanone/3_decanone E -85.133896306726
  C       4.705937      1.713235     -0.531989
  C       3.913756      0.611013      0.144343
  C       2.446562      0.613104     -0.241977
  C       1.645628     -0.487725      0.427142
  C       0.179776     -0.483852      0.037371
  C      -0.611645     -1.594546      0.703648
  C      -2.076546     -1.593426      0.319766
  C      -2.883412     -0.465149      0.912125
  O      -2.463900      0.229586      1.804935
  C      -4.250511     -0.225182      0.322938
  C      -4.179937      0.884861     -0.716245
  H       5.754051      1.691537     -0.235194
  H       4.308151      2.695682     -0.275085
  H       4.665736      1.615429     -1.617528
  H       4.350501     -0.359573     -0.105304
  H       3.999906      0.711419      1.229360
  H       2.008078      1.582993      0.011120
  H       2.359673      0.516384     -1.328674
  H       1.727442     -0.385115      1.512948
  H       2.086359     -1.458242      0.179083
  H      -0.259856      0.479824      0.301940
  H       0.095041     -0.580394     -1.049886
  H      -0.530534     -1.498115      1.787394
  H      -0.176789     -2.560317      0.437434
  H      -2.202497     -1.570146     -0.766498
  H      -2.568120     -2.515263      0.645649
  H      -4.634848     -1.139646     -0.129789
  H      -4.916411      0.066287      1.133843
  H      -5.163335      1.072849     -1.142985
  H      -3.821445      1.807241     -0.262924
  H      -3.506810      0.625245     -1.533396
31
Coordinates from ORCA-job ./output/3_decanone/3_decanone E -85.133906593811
  C       4.696345      1.719521     -0.531807
  C       3.908234      0.610379      0.137528
  C       2.438349      0.617874     -0.238348
  C       1.641585     -0.490324      0.423468
  C       0.173070     -0.481572      0.043716
  C      -0.614619     -1.597979      0.704684
  C      -2.080813     -1.596089      0.325528
  C      -2.885193     -0.469889      0.925553
  O      -2.467650      0.210465      1.830366
  C      -4.245576     -0.213944      0.328097
  C      -4.149932      0.874444     -0.732052
  H       5.746379      1.694824     -0.241832
  H       4.300409      2.699417     -0.262298
  H       4.649514      1.633631     -1.618159
  H       4.342487     -0.357835     -0.125606
  H       4.002099      0.698145      1.223080
  H       2.002110      1.585050      0.028900
  H       2.343348      0.534486     -1.325546
  H       1.730856     -0.400578      1.509914
  H       2.080205     -1.458276      0.161794
  H      -0.264197      0.480016      0.320244
  H       0.080780     -0.566894     -1.043933
  H      -0.530454     -1.509578      1.788882
  H      -0.180008     -2.561551      0.429805
  H      -2.210635     -1.570807     -0.760079
  H      -2.570377     -2.518732      0.652493
  H      -4.645678     -1.129280     -0.109187
  H      -4.907642      0.106016      1.131286
  H      -5.128025      1.072341     -1.166580
  H      -3.776693      1.799000     -0.295017
  H      -3.478278      0.587718     -1.541328
31
Coordinates from ORCA-job ./output/3_decanone/3_decanone E -85.133913360802
  C       4.686533      1.726301     -0.530774
  C       3.901623      0.613405      0.135807
  C       2.431601      0.618101     -0.239738
  C       1.637760     -0.493129      0.420446
  C       0.168635     -0.485731      0.043087
  C      -0.616871     -1.603752      0.703894
  C      -2.084148     -1.600134      0.329299
  C      -2.884619     -0.474502      0.935089
  O      -2.467438      0.193979      1.848922
  C      -4.239512     -0.204103      0.331667
  C      -4.125013      0.873262     -0.737948
  H       5.736913      1.703792     -0.241925
  H       4.288518      2.704551     -0.258384
  H       4.639253      1.643812     -1.617367
  H       4.338234     -0.353071     -0.129651
  H       3.995275      0.698403      1.221565
  H       1.993158      1.583857      0.028897
  H       2.336452      0.536350     -1.327018
  H       1.728740     -0.406654      1.506973
  H       2.077337     -1.459674      0.155402
  H      -0.269468      0.475231      0.320919
  H       0.074619     -0.569869     -1.044473
  H      -0.529573     -1.518277      1.787973
  H      -0.183548     -2.566716      0.424916
  H      -2.217992     -1.575297     -0.755627
  H      -2.573779     -2.522047      0.658481
  H      -4.649939     -1.118107     -0.098891
  H      -4.899634      0.131641      1.129853
  H      -5.098090      1.080434     -1.179256
  H      -3.741993      1.796900     -0.307344
  H      -3.453037      0.571043     -1.541228
31
Coordinates from ORCA-job ./output/3_decanone/3_decanone E -85.133916502960
  C       4.680126      1.730663     -0.530321
  C       3.896695      0.617467      0.137508
  C       2.427967      0.615823     -0.243232
  C       1.635289     -0.494705      0.419492
  C       0.166960     -0.491890      0.039254
  C      -0.617792     -1.609073      0.702378
  C      -2.085653     -1.603815      0.330606
  C      -2.883057     -0.477670      0.938974
  O      -2.465501      0.184480      1.857196
  C      -4.234965     -0.198848      0.332645
  C      -4.111681      0.878354     -0.736085
  H       5.729906      1.712114     -0.239252
  H       4.278863      2.708529     -0.261583
  H       4.635628      1.645147     -1.616744
  H       4.337376     -0.348401     -0.123055
  H       3.986005      0.706710      1.223201
  H       1.985761      1.581501      0.019120
  H       2.337110      0.528230     -1.330340
  H       1.724013     -0.404394      1.505792
  H       2.077358     -1.461082      0.158328
  H      -0.273646      0.469276      0.312393
  H       0.075280     -0.580598     -1.048062
  H      -0.528356     -1.522933      1.786113
  H      -0.185573     -2.572330      0.423042
  H      -2.221940     -1.580477     -0.753899
  H      -2.576402     -2.524497      0.661647
  H      -4.648514     -1.110810     -0.099258
  H      -4.895697      0.139240      1.129209
  H      -5.081710      1.090828     -1.181350
  H      -3.725939      1.799880     -0.303488
  H      -3.437913      0.573278     -1.536665
31
Coordinates from ORCA-job ./output/3_decanone/3_decanone E -85.133916993264
  C       4.679017      1.731442     -0.530266
  C       3.895666      0.618704      0.138550
  C       2.427475      0.614975     -0.244269
  C       1.634748     -0.494778      0.419727
  C       0.166871     -0.493669      0.037813
  C      -0.617872     -1.610679      0.701321
  C      -2.085909     -1.604473      0.330382
  C      -2.882415     -0.478038      0.939470
  O      -2.464359      0.183184      1.858092
  C      -4.234023     -0.197839      0.333182
  C      -4.109787      0.879975     -0.734759
  H       5.728542      1.713832     -0.238335
  H       4.276959      2.709389     -0.263124
  H       4.635397      1.644237     -1.616565
  H       4.337589     -0.347148     -0.119835
  H       3.983353      0.710153      1.224162
  H       1.984186      1.580837      0.015465
  H       2.338408      0.524724     -1.331278
  H       1.722162     -0.402223      1.505907
  H       2.077755     -1.461280      0.160691
  H      -0.274690      0.467470      0.309353
  H       0.076551     -0.583989     -1.049464
  H      -0.527654     -1.524520      1.784975
  H      -0.185981     -2.573966      0.421766
  H      -2.222724     -1.581111     -0.754054
  H      -2.577280     -2.524814      0.661426
  H      -4.647857     -1.109319     -0.099478
  H      -4.894995      0.139767      1.129716
  H      -5.079392      1.092914     -1.180689
  H      -3.724226      1.801176     -0.301358
  H      -3.435515      0.575065     -1.534960
