26
Coordinates from ORCA-job ./output/gamma_terpinene/gamma_terpinene E -66.594306811370
  C       3.703430     -0.484233      0.243043
  C       2.281139     -0.086065     -0.036662
  C       1.772105      1.024702      0.528888
  C       0.364133      1.472363      0.225703
  C      -0.546993      0.294011     -0.060510
  C      -0.030351     -0.818291     -0.629460
  C       1.432452     -0.902518     -0.987558
  C      -2.029329      0.402325      0.259697
  C      -2.447409     -0.635828      1.307573
  C      -2.885666      0.286117     -1.007380
  H       3.982510     -1.394361     -0.328335
  H       3.828002     -0.693895      1.326370
  H       4.389535      0.338006     -0.051224
  H       2.382806      1.629641      1.193729
  H       0.384220      2.131933     -0.667411
  H      -0.017257      2.060590      1.087184
  H      -0.666109     -1.666968     -0.861675
  H       1.570595     -0.509504     -2.016905
  H       1.747485     -1.967577     -0.972584
  H      -2.231438      1.405973      0.694863
  H      -3.507622     -0.476408      1.598619
  H      -1.818230     -0.532146      2.217460
  H      -2.341049     -1.668548      0.912847
  H      -3.952601      0.476253     -0.763038
  H      -2.802903     -0.725905     -1.457170
  H      -2.561458      1.040332     -1.756064
26
Coordinates from ORCA-job ./output/gamma_terpinene/gamma_terpinene E -66.601269483468
  C       3.707151     -0.477791      0.227464
  C       2.281769     -0.071046     -0.038133
  C       1.763441      1.021672      0.514481
  C       0.350219      1.450680      0.237536
  C      -0.547114      0.283320     -0.069120
  C      -0.026216     -0.806931     -0.625273
  C       1.435808     -0.903266     -0.959602
  C      -2.022433      0.397214      0.250166
  C      -2.449163     -0.627687      1.296671
  C      -2.885385      0.297084     -1.004769
  H       3.976109     -1.372505     -0.331749
  H       3.850663     -0.687013      1.286551
  H       4.392143      0.317155     -0.063159
  H       2.367017      1.633330      1.174022
  H       0.345501      2.129624     -0.623066
  H      -0.036195      2.010380      1.090493
  H      -0.655277     -1.656061     -0.859779
  H       1.590150     -0.553602     -1.986765
  H       1.751835     -1.946550     -0.922822
  H      -2.200472      1.387058      0.679922
  H      -3.489622     -0.468292      1.583679
  H      -1.832316     -0.539586      2.190456
  H      -2.351443     -1.642197      0.912344
  H      -3.931645      0.490064     -0.762832
  H      -2.816770     -0.694569     -1.450329
  H      -2.567758      1.029514     -1.746387
26
Coordinates from ORCA-job ./output/gamma_terpinene/gamma_terpinene E -66.602636968413
  C       3.722308     -0.460698      0.187229
  C       2.288278     -0.062586     -0.041038
  C       1.764726      1.020609      0.512739
  C       0.341491      1.432690      0.282365
  C      -0.548371      0.272639     -0.058116
  C      -0.024272     -0.807976     -0.614266
  C       1.437897     -0.923865     -0.927693
  C      -2.025113      0.399756      0.241671
  C      -2.474109     -0.609942      1.290175
  C      -2.875673      0.299919     -1.018612
  H       3.985173     -1.348686     -0.381177
  H       3.899634     -0.676690      1.237953
  H       4.400344      0.334827     -0.111150
  H       2.374156      1.645972      1.154717
  H       0.302982      2.154617     -0.540157
  H      -0.042248      1.952740      1.158791
  H      -0.654740     -1.651761     -0.867220
  H       1.607955     -0.627705     -1.967934
  H       1.752823     -1.963500     -0.853231
  H      -2.190344      1.393916      0.660848
  H      -3.516961     -0.448418      1.557788
  H      -1.873655     -0.523323      2.192729
  H      -2.372899     -1.626925      0.917876
  H      -3.922723      0.492573     -0.790833
  H      -2.804494     -0.691734     -1.460226
  H      -2.552165      1.023548     -1.763231
26
Coordinates from ORCA-job ./output/gamma_terpinene/gamma_terpinene E -66.604225280282
  C       3.744773     -0.428249      0.114182
  C       2.296828     -0.054810     -0.043589
  C       1.766775      1.017433      0.518370
  C       0.330607      1.402462      0.365326
  C      -0.549666      0.256789     -0.035668
  C      -0.020460     -0.814769     -0.597213
  C       1.441190     -0.962685     -0.875629
  C      -2.031094      0.407964      0.226440
  C      -2.517214     -0.575075      1.280536
  C      -2.856291      0.298785     -1.046792
  H       4.000031     -1.300677     -0.481585
  H       3.980649     -0.663157      1.150214
  H       4.403998      0.380531     -0.193464
  H       2.388225      1.668328      1.124383
  H       0.237870      2.195144     -0.385819
  H      -0.042859      1.848532      1.287496
  H      -0.654499     -1.645206     -0.888173
  H       1.637079     -0.755642     -1.933756
  H       1.751024     -1.998109     -0.732905
  H      -2.180782      1.413447      0.624625
  H      -3.566656     -0.407003      1.516394
  H      -1.942068     -0.485547      2.199774
  H      -2.411715     -1.600209      0.929401
  H      -3.908189      0.495441     -0.846368
  H      -2.780948     -0.699282     -1.475293
  H      -2.516611      1.005563     -1.800884
26
Coordinates from ORCA-job ./output/gamma_terpinene/gamma_terpinene E -66.605135085783
  C       3.755775     -0.406467      0.069017
  C       2.300311     -0.053650     -0.045605
  C       1.769222      1.014622      0.525082
  C       0.326518      1.383121      0.419562
  C      -0.550142      0.250520     -0.023326
  C      -0.019948     -0.818781     -0.591627
  C       1.441957     -0.987898     -0.845325
  C      -2.034946      0.415541      0.214551
  C      -2.539865     -0.550254      1.275522
  C      -2.844195      0.292521     -1.066993
  H       4.008950     -1.262721     -0.552546
  H       4.023418     -0.661432      1.093939
  H       4.398738      0.418147     -0.235016
  H       2.399639      1.680618      1.105837
  H       0.203304      2.217888     -0.281246
  H      -0.035824      1.774658      1.372900
  H      -0.658107     -1.636630     -0.909742
  H       1.654548     -0.836020     -1.910541
  H       1.743446     -2.019962     -0.653730
  H      -2.180026      1.429044      0.596735
  H      -3.593112     -0.377111      1.494604
  H      -1.977479     -0.453157      2.203181
  H      -2.432629     -1.581336      0.938930
  H      -3.899370      0.493011     -0.883164
  H      -2.766536     -0.711954     -1.482659
  H      -2.493648      0.987682     -1.828341
26
Coordinates from ORCA-job ./output/gamma_terpinene/gamma_terpinene E -66.606349743795
  C       3.767245     -0.375327      0.009227
  C       2.302619     -0.054942     -0.049579
  C       1.773483      1.008413      0.536764
  C       0.322966      1.352362      0.496491
  C      -0.549973      0.245158     -0.010967
  C      -0.021339     -0.820815     -0.593147
  C       1.441621     -1.020758     -0.807074
  C      -2.038889      0.427618      0.193294
  C      -2.564290     -0.508915      1.271500
  C      -2.828655      0.274171     -1.097013
  H       4.021368     -1.193998     -0.663037
  H       4.069337     -0.676689      1.013359
  H       4.383892      0.479894     -0.267459
  H       2.416690      1.692976      1.081373
  H       0.162125      2.241987     -0.125799
  H      -0.019350      1.655634      1.491663
  H      -0.666572     -1.615023     -0.954421
  H       1.678763     -0.943386     -1.875808
  H       1.724672     -2.044578     -0.542317
  H      -2.182118      1.453167      0.546743
  H      -3.620987     -0.326057      1.471473
  H      -2.014966     -0.391943      2.206178
  H      -2.456922     -1.549186      0.960453
  H      -3.886997      0.482066     -0.933818
  H      -2.749836     -0.741434     -1.487144
  H      -2.463888      0.949604     -1.870934
26
Coordinates from ORCA-job ./output/gamma_terpinene/gamma_terpinene E -66.607735249190
  C       3.777072     -0.333224     -0.065509
  C       2.303210     -0.056481     -0.055971
  C       1.776717      0.995651      0.555839
  C       0.318260      1.298753      0.601006
  C      -0.548229      0.239073     -0.004776
  C      -0.021542     -0.815964     -0.612203
  C       1.442142     -1.057399     -0.762563
  C      -2.040251      0.444509      0.155978
  C      -2.587201     -0.435003      1.272494
  C      -2.812211      0.231933     -1.136480
  H       4.035536     -1.062594     -0.833613
  H       4.110614     -0.739893      0.891325
  H       4.360480      0.568458     -0.252930
  H       2.431709      1.702708      1.055906
  H       0.112507      2.253674      0.101594
  H       0.005240      1.464983      1.639703
  H      -0.672289     -1.570703     -1.041090
  H       1.715556     -1.076142     -1.824850
  H       1.692935     -2.062148     -0.400795
  H      -2.180876      1.488067      0.456178
  H      -3.644551     -0.232322      1.452248
  H      -2.047517     -0.277575      2.207562
  H      -2.486168     -1.489576      1.009948
  H      -3.871234      0.455617     -0.996928
  H      -2.739259     -0.802193     -1.476128
  H      -2.430654      0.867788     -1.935944
26
Coordinates from ORCA-job ./output/gamma_terpinene/gamma_terpinene E -66.608846791119
  C       3.781875     -0.300047     -0.114562
  C       2.303279     -0.056261     -0.063581
  C       1.777115      0.980070      0.575985
  C       0.313613      1.240989      0.686923
  C      -0.545866      0.236402     -0.014180
  C      -0.018305     -0.800249     -0.653117
  C       1.444701     -1.076781     -0.741661
  C      -2.038531      0.459038      0.113818
  C      -2.593541     -0.345598      1.283385
  C      -2.808481      0.168367     -1.164296
  H       4.052874     -0.884660     -0.994444
  H       4.116839     -0.860261      0.761064
  H       4.345439      0.632147     -0.140453
  H       2.435902      1.700311      1.050860
  H       0.077807      2.240641      0.304790
  H       0.024685      1.277624      1.745909
  H      -0.667458     -1.513134     -1.148889
  H       1.750770     -1.163023     -1.790311
  H       1.660389     -2.062993     -0.309829
  H      -2.177747      1.519923      0.347059
  H      -3.647754     -0.118690      1.452162
  H      -2.051154     -0.135214      2.206309
  H      -2.504287     -1.414554      1.082974
  H      -3.864613      0.413048     -1.039989
  H      -2.749879     -0.886177     -1.435842
  H      -2.417676      0.749080     -2.000085
26
Coordinates from ORCA-job ./output/gamma_terpinene/gamma_terpinene E -66.609990573610
  C       3.786173     -0.272234     -0.143766
  C       2.305042     -0.056958     -0.069302
  C       1.776023      0.956158      0.603697
  C       0.308531      1.177300      0.760456
  C      -0.543668      0.231358     -0.028137
  C      -0.011504     -0.776571     -0.707315
  C       1.450138     -1.080014     -0.746879
  C      -2.035177      0.469209      0.069224
  C      -2.595016     -0.233239      1.302706
  C      -2.811165      0.077447     -1.177317
  H       4.082306     -0.632078     -1.129591
  H       4.101003     -1.024828      0.582092
  H       4.334014      0.644036      0.068375
  H       2.433741      1.678758      1.074754
  H       0.055809      2.204389      0.480063
  H       0.038456      1.100847      1.821080
  H      -0.653257     -1.443203     -1.269929
  H       1.780895     -1.194779     -1.783534
  H       1.632926     -2.057359     -0.282194
  H      -2.173869      1.545456      0.214181
  H      -3.644031      0.023330      1.456636
  H      -2.047089      0.045079      2.203011
  H      -2.520846     -1.314943      1.185667
  H      -3.860706      0.353861     -1.071429
  H      -2.777534     -0.997595     -1.353269
  H      -2.411200      0.576571     -2.059281
26
Coordinates from ORCA-job ./output/gamma_terpinene/gamma_terpinene E -66.610878299387
  C       3.791168     -0.249721     -0.163249
  C       2.309734     -0.061694     -0.066811
  C       1.773961      0.919857      0.643973
  C       0.303210      1.113783      0.822035
  C      -0.542463      0.217056     -0.032111
  C      -0.001728     -0.753444     -0.754452
  C       1.459958     -1.068239     -0.774149
  C      -2.030470      0.472225      0.032031
  C      -2.607133     -0.107714      1.321809
  C      -2.809581     -0.028313     -1.171547
  H       4.112480     -0.340749     -1.200907
  H       4.086733     -1.168705      0.345635
  H       4.323760      0.579109      0.296141
  H       2.427712      1.631073      1.135675
  H       0.045313      2.154439      0.609107
  H       0.044016      0.962462      1.874012
  H      -0.633574     -1.376982     -1.373133
  H       1.802400     -1.162682     -1.807875
  H       1.625093     -2.053682     -0.325250
  H      -2.165054      1.557280      0.074839
  H      -3.652662      0.174960      1.440987
  H      -2.066621      0.247286      2.196992
  H      -2.544528     -1.195343      1.304765
  H      -3.849303      0.288431     -1.099962
  H      -2.809307     -1.115873     -1.231516
  H      -2.393118      0.365176     -2.097040
26
Coordinates from ORCA-job ./output/gamma_terpinene/gamma_terpinene E -66.611280334410
  C       3.795151     -0.244623     -0.172017
  C       2.314565     -0.070150     -0.056278
  C       1.772301      0.887795      0.679224
  C       0.300690      1.083489      0.850127
  C      -0.542601      0.203653     -0.025149
  C       0.004998     -0.743314     -0.771050
  C       1.468383     -1.049900     -0.804095
  C      -2.027590      0.470187      0.019253
  C      -2.625996     -0.031995      1.331539
  C      -2.802793     -0.092842     -1.158210
  H       4.121449     -0.189152     -1.210485
  H       4.088692     -1.226291      0.201748
  H       4.325877      0.511975      0.399493
  H       2.422396      1.578788      1.203729
  H       0.049202      2.128084      0.647353
  H       0.037714      0.922057      1.897717
  H      -0.622597     -1.352527     -1.408361
  H       1.807831     -1.094773     -1.842548
  H       1.639719     -2.053443     -0.403437
  H      -2.155358      1.556709     -0.000834
  H      -3.674551      0.250988      1.411333
  H      -2.108098      0.377622      2.195299
  H      -2.558362     -1.117989      1.383358
  H      -3.837303      0.244009     -1.116548
  H      -2.818866     -1.181977     -1.147212
  H      -2.374856      0.233622     -2.103948
26
Coordinates from ORCA-job ./output/gamma_terpinene/gamma_terpinene E -66.611503635952
  C       3.797030     -0.256961     -0.161092
  C       2.317558     -0.076680     -0.047298
  C       1.769155      0.865294      0.704129
  C       0.298469      1.079099      0.850891
  C      -0.542963      0.202205     -0.029084
  C       0.010482     -0.733875     -0.785640
  C       1.475034     -1.025401     -0.838696
  C      -2.028039      0.467738      0.014691
  C      -2.630298      0.008163      1.339808
  C      -2.805433     -0.131972     -1.143624
  H       4.129692     -0.137726     -1.192728
  H       4.085830     -1.261644      0.150888
  H       4.332490      0.460284      0.456455
  H       2.414643      1.531873      1.265908
  H       0.061123      2.125366      0.634564
  H       0.019503      0.934378      1.897490
  H      -0.614873     -1.347133     -1.421897
  H       1.809312     -1.015850     -1.880908
  H       1.659384     -2.047488     -0.492987
  H      -2.153643      1.554150     -0.038981
  H      -3.686193      0.270519      1.394729
  H      -2.133955      0.462388      2.194757
  H      -2.541543     -1.073793      1.438583
  H      -3.841642      0.202136     -1.109001
  H      -2.815360     -1.220947     -1.098009
  H      -2.385764      0.165874     -2.102948
26
Coordinates from ORCA-job ./output/gamma_terpinene/gamma_terpinene E -66.611576613713
  C       3.795716     -0.274558     -0.140303
  C       2.317765     -0.078403     -0.044780
  C       1.766281      0.856142      0.714585
  C       0.296993      1.087035      0.838844
  C      -0.543482      0.207228     -0.039007
  C       0.012950     -0.724260     -0.800923
  C       1.478263     -1.003448     -0.867703
  C      -2.030077      0.465892      0.012817
  C      -2.622298      0.022562      1.347331
  C      -2.812732     -0.153239     -1.131906
  H       4.140737     -0.136947     -1.166368
  H       4.073168     -1.288099      0.154367
  H       4.333897      0.425212      0.495925
  H       2.408145      1.505780      1.300427
  H       0.072455      2.133549      0.607156
  H       0.003095      0.960482      1.884527
  H      -0.610916     -1.342146     -1.434380
  H       1.809764     -0.956310     -1.910474
  H       1.671841     -2.036752     -0.559857
  H      -2.158001      1.552021     -0.054677
  H      -3.684143      0.263410      1.395400
  H      -2.137435      0.504559      2.194328
  H      -2.512771     -1.055754      1.469775
  H      -3.852958      0.168989     -1.090199
  H      -2.807992     -1.242219     -1.074984
  H      -2.408268      0.139273     -2.099920
26
Coordinates from ORCA-job ./output/gamma_terpinene/gamma_terpinene E -66.611593601472
  C       3.793748     -0.286133     -0.125781
  C       2.316815     -0.078100     -0.044998
  C       1.765498      0.856153      0.715128
  C       0.297000      1.096990      0.826967
  C      -0.543953      0.211667     -0.044724
  C       0.012442     -0.718864     -0.808130
  C       1.478429     -0.991898     -0.881576
  C      -2.031701      0.464830      0.013892
  C      -2.614926      0.019617      1.351718
  C      -2.816938     -0.158246     -1.126553
  H       4.147369     -0.156677     -1.150201
  H       4.061907     -1.299795      0.177045
  H       4.332805      0.413206      0.510268
  H       2.406411      1.499013      1.309315
  H       0.079303      2.142363      0.583386
  H      -0.004307      0.983778      1.872073
  H      -0.611489     -1.339290     -1.438973
  H       1.808882     -0.928397     -1.923909
  H       1.675890     -2.029298     -0.589973
  H      -2.162617      1.550695     -0.053674
  H      -3.679321      0.249147      1.401598
  H      -2.133534      0.509627      2.196008
  H      -2.494696     -1.057267      1.477273
  H      -3.859527      0.155322     -1.077798
  H      -2.802667     -1.247281     -1.071655
  H      -2.420826      0.138836     -2.096724
26
Coordinates from ORCA-job ./output/gamma_terpinene/gamma_terpinene E -66.611598603902
  C       3.792253     -0.292374     -0.116713
  C       2.315822     -0.077457     -0.045581
  C       1.764896      0.857335      0.714219
  C       0.296673      1.103003      0.819276
  C      -0.544122      0.214961     -0.049534
  C       0.012109     -0.714713     -0.813988
  C       1.478509     -0.985656     -0.888870
  C      -2.032623      0.464291      0.013874
  C      -2.608568      0.016734      1.354268
  C      -2.820425     -0.160793     -1.123385
  H       4.152616     -0.167333     -1.139310
  H       4.053235     -1.306617      0.190334
  H       4.330631      0.405580      0.521213
  H       2.405526      1.496946      1.312026
  H       0.082220      2.147603      0.569871
  H      -0.008610      0.996025      1.863840
  H      -0.611778     -1.335844     -1.444010
  H       1.810024     -0.915403     -1.930359
  H       1.676399     -2.024710     -0.603658
  H      -2.166155      1.549799     -0.052982
  H      -3.673823      0.241387      1.408067
  H      -2.126590      0.509457      2.196509
  H      -2.483447     -1.059561      1.479151
  H      -3.863814      0.149071     -1.070212
  H      -2.802478     -1.249734     -1.069368
  H      -2.428482      0.138002     -2.094675
26
Coordinates from ORCA-job ./output/gamma_terpinene/gamma_terpinene E -66.611600034093
  C       3.791699     -0.294646     -0.113758
  C       2.315327     -0.077002     -0.045924
  C       1.765090      0.859293      0.712408
  C       0.297007      1.107179      0.815079
  C      -0.544163      0.216190     -0.050202
  C       0.011483     -0.714090     -0.814056
  C       1.478074     -0.984212     -0.890033
  C      -2.032896      0.464002      0.015157
  C      -2.606774      0.011917      1.355027
  C      -2.821014     -0.159014     -1.122903
  H       4.154508     -0.175181     -1.136040
  H       4.049645     -1.308033      0.198455
  H       4.329869      0.404899      0.522431
  H       2.406107      1.498264      1.310409
  H       0.083643      2.150799      0.560877
  H      -0.009207      1.005212      1.859733
  H      -0.612922     -1.336665     -1.442133
  H       1.809568     -0.912612     -1.931381
  H       1.676133     -2.023470     -0.606055
  H      -2.167760      1.549430     -0.048746
  H      -3.672068      0.235627      1.411004
  H      -2.124162      0.502510      2.197989
  H      -2.480708     -1.064604      1.476082
  H      -3.864550      0.149805     -1.068196
  H      -2.802363     -1.248033     -1.071718
  H      -2.429569      0.142432     -2.093504
26
Coordinates from ORCA-job ./output/gamma_terpinene/gamma_terpinene E -66.611600872076
  C       3.791286     -0.295920     -0.111828
  C       2.314939     -0.076683     -0.045932
  C       1.764971      0.860676      0.711243
  C       0.297012      1.110035      0.812103
  C      -0.544141      0.217234     -0.051186
  C       0.011280     -0.713627     -0.814374
  C       1.477923     -0.983583     -0.890429
  C      -2.032979      0.463803      0.015753
  C      -2.605051      0.008826      1.355474
  C      -2.821754     -0.157998     -1.122545
  H       4.156220     -0.177193     -1.133376
  H       4.046963     -1.309743      0.200874
  H       4.328998      0.402777      0.525610
  H       2.406180      1.499285      1.309401
  H       0.084429      2.152954      0.554459
  H      -0.010079      1.011606      1.856825
  H      -0.613372     -1.337312     -1.441111
  H       1.809818     -0.911677     -1.931620
  H       1.675720     -2.022935     -0.606696
  H      -2.168990      1.549150     -0.046223
  H      -3.670154      0.232782      1.413705
  H      -2.120983      0.497295      2.198826
  H      -2.479036     -1.067992      1.473493
  H      -3.865192      0.150919     -1.066945
  H      -2.803520     -1.247056     -1.072598
  H      -2.430488      0.144376     -2.092903
