! wB97X-3c OPT FREQ TightSCF
%pal
  nprocs 40
end
* xyz 0 1
C      3.703430    -0.484233     0.243043
C      2.281139    -0.086065    -0.036662
C      1.772105     1.024702     0.528888
C      0.364133     1.472363     0.225703
C     -0.546993     0.294011    -0.060510
C     -0.030351    -0.818291    -0.629460
C      1.432452    -0.902518    -0.987558
C     -2.029329     0.402325     0.259697
C     -2.447409    -0.635828     1.307573
C     -2.885666     0.286117    -1.007380
H      3.982510    -1.394361    -0.328335
H      3.828002    -0.693895     1.326370
H      4.389535     0.338006    -0.051224
H      2.382806     1.629641     1.193729
H      0.384220     2.131933    -0.667411
H     -0.017257     2.060590     1.087184
H     -0.666109    -1.666968    -0.861675
H      1.570595    -0.509504    -2.016905
H      1.747485    -1.967577    -0.972584
H     -2.231438     1.405973     0.694863
H     -3.507622    -0.476408     1.598619
H     -1.818230    -0.532146     2.217460
H     -2.341049    -1.668548     0.912847
H     -3.952601     0.476253    -0.763038
H     -2.802903    -0.725905    -1.457170
H     -2.561458     1.040332    -1.756064
*
