26
Coordinates from ORCA-job ./output/gamma_terpinene/gamma_terpinene E -66.611600872076
  C           3.79128563702891     -0.29592044954433     -0.11182807150004
  C           2.31493946181395     -0.07668334520681     -0.04593211295674
  C           1.76497085567462      0.86067634905300      0.71124280936656
  C           0.29701160157503      1.11003534319151      0.81210281096415
  C          -0.54414101504214      0.21723445176568     -0.05118578427186
  C           0.01127958057111     -0.71362748481101     -0.81437407642402
  C           1.47792267021781     -0.98358347463977     -0.89042920662649
  C          -2.03297917863492      0.46380319298430      0.01575298697987
  C          -2.60505146799269      0.00882555577581      1.35547406943887
  C          -2.82175429005849     -0.15799812190241     -1.12254539617106
  H           4.15621959572195     -0.17719337604649     -1.13337577714368
  H           4.04696336387014     -1.30974259823973      0.20087392751072
  H           4.32899790409526      0.40277671803472      0.52561037168235
  H           2.40617987074511      1.49928474817906      1.30940122389100
  H           0.08442852407220      2.15295358064169      0.55445868512802
  H          -0.01007918018160      1.01160596490270      1.85682526405813
  H          -0.61337218352613     -1.33731205673182     -1.44111122990703
  H           1.80981838834517     -0.91167653180771     -1.93161974796830
  H           1.67571964621049     -2.02293471099499     -0.60669600142646
  H          -2.16898992778060      1.54915040681814     -0.04622266581314
  H          -3.67015440537799      0.23278201030902      1.41370542786327
  H          -2.12098288450705      0.49729512646927      2.19882558901870
  H          -2.47903560104297     -1.06799178535366      1.47349289547279
  H          -3.86519223662706      0.15091896210632     -1.06694473576233
  H          -2.80351997482818     -1.24705555156362     -1.07259794626104
  H          -2.43048775434195      0.14437607661113     -2.09290330914226
