42
Coordinates from ORCA-job ./output/cedrol/cedrol E -117.252656104951
  C           3.41992971146350      1.20592557029165     -0.61508420674748
  C           2.50507407950061      0.02479832524822     -0.36257988856692
  C           2.79930495887842     -0.72352291398711      0.93457563056117
  C           1.56531007305560     -1.58954530484285      1.12651046400020
  C           0.43038148014610     -0.62004370739444      0.81351703454107
  C           0.98594155180554      0.30952138742649     -0.29612193460756
  C           0.61416982721507      1.76433255716237     -0.01505822758784
  C          -0.88086461902581      1.93692350726754      0.23436759906365
  C          -1.75768944416216      1.16650132460001     -0.74239691089292
  C          -1.20989820705621     -0.26405499028571     -0.95127366158999
  C           0.19932025411581     -0.13577427389072     -1.52357719477650
  C          -0.94260663932547     -1.14857974390235      0.30843573366684
  C          -1.97556715062080     -1.11269460930443      1.42888041470696
  C          -0.88973086654140     -2.60592651171132     -0.15609734331927
  C          -3.22200732603778      1.21732570192301     -0.33969024610159
  O          -1.65033140612991      1.87519236345318     -1.98173909843077
  H           4.45670985069017      0.87355692367676     -0.67340595891257
  H           3.18284639187104      1.70670923498332     -1.55348767462706
  H           3.35846095422884      1.94525024110930      0.18284759288583
  H           2.65877619669850     -0.68537320144554     -1.18106298892580
  H           2.89250060694630     -0.01209814685525      1.76083471263443
  H           3.72865449417669     -1.29292371989234      0.89151285799802
  H           1.49085517880227     -2.02646583595652      2.12264693280505
  H           1.59576472383767     -2.41326270018210      0.41240901126124
  H           0.26413984081520     -0.03296602929745      1.71970484651093
  H           0.91263007020298      2.38298723761705     -0.86234906761124
  H           1.15736043575743      2.13544762871042      0.85649002095268
  H          -1.15217837012505      2.99145563575016      0.17384515896267
  H          -1.12347342235053      1.61402556640388      1.24515978386482
  H          -1.89395646840959     -0.78295292727557     -1.63152211400018
  H           0.26545035316941      0.57068586609609     -2.34732967605883
  H           0.56234333373501     -1.09731863925934     -1.88362942415644
  H          -2.96640282694367     -1.39766964555484      1.07512174639808
  H          -1.68778264617980     -1.82860012597987      2.20024584385082
  H          -2.04879627570087     -0.14169750178173      1.91059966436152
  H          -1.87953873117148     -2.92073002333128     -0.48881996316206
  H          -0.19934509348002     -2.77189488271429     -0.97938123786755
  H          -0.59416550319760     -3.26411310594357      0.66032029889121
  H          -3.55472170508834      2.25426494359404     -0.35604736060781
  H          -3.41073415706130      0.81285479836923      0.64802956497970
  H          -3.83083129742013      0.65671701440333     -1.05159066336966
  H          -2.17530421108423      1.42372971270259     -2.64425407097686
