! wB97X-3c OPT FREQ TightSCF
%pal
  nprocs 40
end
* xyz 0 1
C      3.398429    -0.579076    -0.100016
C      1.951492    -0.186152    -0.227456
C      1.616856     0.860118    -1.001392
C      0.186995     1.290794    -1.168411
C     -0.611231     1.156673     0.145475
C     -0.237657    -0.047843     1.040005
C      0.884809    -0.965152     0.506162
C     -1.605624    -0.000210     0.339514
C     -2.784750     0.321056     1.264382
C     -1.917666    -0.960717    -0.824225
H      3.517207    -1.478162     0.540225
H      3.815132    -0.809458    -1.103388
H      3.975555     0.255275     0.351659
H      2.390655     1.423474    -1.516569
H     -0.272355     0.750720    -2.016422
H      0.182145     2.361878    -1.461287
H     -0.791109     2.083373     0.732939
H     -0.212632     0.216415     2.119763
H      0.510923    -1.783251    -0.136313
H      1.338951    -1.468318     1.385895
H     -2.500990     1.016807     2.083444
H     -3.600646     0.789653     0.675193
H     -3.164944    -0.617412     1.719492
H     -2.721210    -0.520940    -1.451117
H     -1.062761    -1.186677    -1.486819
H     -2.285574    -1.922866    -0.410732
*
