26
Coordinates from ORCA-job ./output/delta_3_carene/delta_3_carene E -66.602739125227
  C           3.06740726788227     -0.95644502064289     -0.45926595079242
  C           1.80233313713250     -0.18491512018121     -0.25737326158874
  C           1.41644817404067      0.76498612462788     -1.09779432104067
  C           0.17108633294967      1.58157272769979     -0.97671536863279
  C          -0.68043688811074      1.27607863346059      0.22823497497728
  C          -0.25910379267829      0.20624643804746      1.19233570402493
  C           1.01361127409069     -0.56539220543965      0.95864005507535
  C          -1.47888012669365      0.01313150024699      0.34344212241583
  C          -2.81046853677202      0.11771516648392      1.03999030730051
  C          -1.46803452781475     -0.99144961369241     -0.77655398845382
  H           2.86042744859197     -2.02463961530498     -0.54578848529455
  H           3.59326620650398     -0.63777959279059     -1.35674789272620
  H           3.73906887366684     -0.83226557054036      0.39190311401918
  H           2.04362099391659      0.98433625209741     -1.95572111157840
  H          -0.41635397743285      1.47482081214029     -1.89405517376285
  H           0.45841590646767      2.63490970615445     -0.94201697189887
  H          -1.14697582320074      2.14921567375583      0.66765941762757
  H          -0.46121524966554      0.40667384108197      2.23736935225791
  H           0.80547265918350     -1.63994711612968      0.91786513698573
  H           1.66416542331971     -0.43508102342158      1.82729043460942
  H          -2.78202009614324      0.85507062963514      1.84148485563335
  H          -3.59429093439647      0.41504281242198      0.34118365451562
  H          -3.09934264238583     -0.83958080654536      1.47728363396975
  H          -2.20904513418283     -0.72622156878748     -1.53254068114232
  H          -0.50206630501849     -1.06328311467643     -1.26923179071375
  H          -1.72708966325063     -1.98279794970113     -0.40087676578708
