26
Coordinates from ORCA-job ./output/delta_3_carene/delta_3_carene E -66.579340888778
  C       3.398429     -0.579076     -0.100016
  C       1.951492     -0.186152     -0.227456
  C       1.616856      0.860118     -1.001392
  C       0.186995      1.290794     -1.168411
  C      -0.611231      1.156673      0.145475
  C      -0.237657     -0.047843      1.040005
  C       0.884809     -0.965152      0.506162
  C      -1.605624     -0.000210      0.339514
  C      -2.784750      0.321056      1.264382
  C      -1.917666     -0.960717     -0.824225
  H       3.517207     -1.478162      0.540225
  H       3.815132     -0.809458     -1.103388
  H       3.975555      0.255275      0.351659
  H       2.390655      1.423474     -1.516569
  H      -0.272355      0.750720     -2.016422
  H       0.182145      2.361878     -1.461287
  H      -0.791109      2.083373      0.732939
  H      -0.212632      0.216415      2.119763
  H       0.510923     -1.783251     -0.136313
  H       1.338951     -1.468318      1.385895
  H      -2.500990      1.016807      2.083444
  H      -3.600646      0.789653      0.675193
  H      -3.164944     -0.617412      1.719492
  H      -2.721210     -0.520940     -1.451117
  H      -1.062761     -1.186677     -1.486819
  H      -2.285574     -1.922866     -0.410732
26
Coordinates from ORCA-job ./output/delta_3_carene/delta_3_carene E -66.591118134918
  C       3.387835     -0.596895     -0.104359
  C       1.946991     -0.172269     -0.227110
  C       1.606575      0.861600     -0.992835
  C       0.179232      1.304643     -1.148825
  C      -0.612841      1.141741      0.136077
  C      -0.238004     -0.040766      1.017205
  C       0.885623     -0.935009      0.518401
  C      -1.588122      0.003052      0.336231
  C      -2.764683      0.302813      1.238083
  C      -1.903897     -0.940267     -0.795975
  H       3.491980     -1.480271      0.524582
  H       3.801925     -0.834758     -1.083644
  H       3.982294      0.202456      0.337106
  H       2.374672      1.411028     -1.524884
  H      -0.285766      0.775549     -1.981386
  H       0.164760      2.359586     -1.431628
  H      -0.825395      2.049616      0.685060
  H      -0.231092      0.188891      2.074556
  H       0.511232     -1.745043     -0.108861
  H       1.334950     -1.425205      1.385118
  H      -2.489344      0.987827      2.037600
  H      -3.574827      0.757202      0.663759
  H      -3.136757     -0.618114      1.692227
  H      -2.698069     -0.514855     -1.412593
  H      -1.059601     -1.153304     -1.444153
  H      -2.259669     -1.889248     -0.389749
26
Coordinates from ORCA-job ./output/delta_3_carene/delta_3_carene E -66.593084379646
  C       3.376149     -0.625141     -0.129594
  C       1.945923     -0.161742     -0.226049
  C       1.600452      0.865299     -0.991056
  C       0.179301      1.334605     -1.128560
  C      -0.616650      1.141279      0.140054
  C      -0.241335     -0.024026      1.016401
  C       0.895733     -0.905059      0.555265
  C      -1.577577      0.006819      0.336228
  C      -2.766549      0.286595      1.217676
  C      -1.881910     -0.936968     -0.787902
  H       3.467841     -1.510222      0.494690
  H       3.775500     -0.872078     -1.110343
  H       4.004098      0.150211      0.303304
  H       2.363043      1.388768     -1.556769
  H      -0.296209      0.824047     -1.966030
  H       0.170621      2.390414     -1.394442
  H      -0.865962      2.050190      0.667547
  H      -0.258339      0.181305      2.076648
  H       0.525332     -1.735246     -0.046898
  H       1.355569     -1.366154      1.428433
  H      -2.507284      0.974610      2.018362
  H      -3.578435      0.730519      0.641854
  H      -3.136341     -0.632938      1.671199
  H      -2.673838     -0.526216     -1.413960
  H      -1.028849     -1.138968     -1.426462
  H      -2.230286     -1.889898     -0.389594
26
Coordinates from ORCA-job ./output/delta_3_carene/delta_3_carene E -66.594178170220
  C       3.352975     -0.666396     -0.173885
  C       1.938063     -0.157099     -0.225761
  C       1.587577      0.864486     -0.994814
  C       0.179431      1.375830     -1.103122
  C      -0.622127      1.153953      0.155855
  C      -0.245518      0.003244      1.034594
  C       0.909955     -0.870101      0.613670
  C      -1.568623      0.011442      0.338914
  C      -2.780796      0.267073      1.193711
  C      -1.839050     -0.940037     -0.789512
  H       3.432592     -1.560141      0.440764
  H       3.724598     -0.917520     -1.165405
  H       4.022387      0.080535      0.249550
  H       2.341130      1.349930     -1.605762
  H      -0.312498      0.900912     -1.954441
  H       0.192248      2.438286     -1.339759
  H      -0.906354      2.064181      0.666900
  H      -0.288843      0.193437      2.098790
  H       0.550354     -1.739991      0.059291
  H       1.392319     -1.276248      1.501651
  H      -2.551300      0.960318      2.001124
  H      -3.592122      0.697011      0.605653
  H      -3.147146     -0.656928      1.642027
  H      -2.625418     -0.549243     -1.436106
  H      -0.966924     -1.124556     -1.410585
  H      -2.176911     -1.902377     -0.403339
26
Coordinates from ORCA-job ./output/delta_3_carene/delta_3_carene E -66.595528855074
  C       3.306169     -0.728635     -0.239586
  C       1.915712     -0.159514     -0.229445
  C       1.559467      0.855118     -1.006223
  C       0.176118      1.431360     -1.068082
  C      -0.629784      1.179624      0.183147
  C      -0.249882      0.044817      1.069801
  C       0.927305     -0.820940      0.696327
  C      -1.555255      0.018134      0.344094
  C      -2.801568      0.237230      1.158620
  C      -1.760511     -0.942949     -0.793995
  H       3.367355     -1.637783      0.356595
  H       3.638298     -0.976550     -1.247247
  H       4.026957     -0.023354      0.175264
  H       2.295989      1.286134     -1.677055
  H      -0.341592      1.016439     -1.938313
  H       0.230020      2.502451     -1.258628
  H      -0.953327      2.088416      0.677542
  H      -0.324193      0.226153      2.135976
  H       0.586370     -1.747665      0.223309
  H       1.447210     -1.136435      1.600697
  H      -2.620727      0.936328      1.975822
  H      -3.608408      0.645515      0.547468
  H      -3.159680     -0.696478      1.595761
  H      -2.534707     -0.581309     -1.473161
  H      -0.857622     -1.096490     -1.383134
  H      -2.079714     -1.919614     -0.425553
26
Coordinates from ORCA-job ./output/delta_3_carene/delta_3_carene E -66.596981183104
  C       3.248389     -0.791041     -0.301941
  C       1.884099     -0.168756     -0.236343
  C       1.523333      0.838723     -1.021955
  C       0.170732      1.480695     -1.035783
  C      -0.637760      1.208673      0.211125
  C      -0.253129      0.085743      1.108554
  C       0.942322     -0.772131      0.772329
  C      -1.540871      0.024201      0.349693
  C      -2.818758      0.205565      1.123913
  C      -1.671734     -0.942534     -0.798203
  H       3.287428     -1.717980      0.270625
  H       3.546494     -1.025749     -1.324386
  H       4.010938     -0.128549      0.112636
  H       2.238793      1.217078     -1.746156
  H      -0.372041      1.130479     -1.921171
  H       0.273460      2.556731     -1.179437
  H      -0.992875      2.113397      0.694286
  H      -0.353164      0.267135      2.174092
  H       0.623407     -1.748518      0.388183
  H       1.502464     -0.990965      1.682744
  H      -2.688265      0.908349      1.949102
  H      -3.618256      0.591594      0.487397
  H      -3.165063     -0.739527      1.548270
  H      -2.431040     -0.608672     -1.509127
  H      -0.739418     -1.060919     -1.351899
  H      -1.969484     -1.933021     -0.446547
26
Coordinates from ORCA-job ./output/delta_3_carene/delta_3_carene E -66.598903918391
  C       3.152235     -0.879420     -0.384535
  C       1.827752     -0.188662     -0.248538
  C       1.461653      0.806560     -1.048507
  C       0.162602      1.541897     -0.992987
  C      -0.651070      1.251778      0.248349
  C      -0.257528      0.141867      1.164817
  C       0.962355     -0.699179      0.869236
  C      -1.517680      0.030610      0.356313
  C      -2.834674      0.157107      1.073693
  C      -1.536343     -0.938012     -0.800530
  H       3.148019     -1.838716      0.136247
  H       3.416481     -1.070681     -1.425695
  H       3.959902     -0.286574      0.052585
  H       2.139790      1.110386     -1.841229
  H      -0.411539      1.293193     -1.894092
  H       0.347223      2.615874     -1.066592
  H      -1.045033      2.146420      0.721360
  H      -0.392179      0.330628      2.225886
  H       0.682984     -1.731614      0.622776
  H       1.580509     -0.771947      1.767826
  H      -2.775112      0.862859      1.904924
  H      -3.619739      0.509851      0.399591
  H      -3.158079     -0.804487      1.480708
  H      -2.270866     -0.639883     -1.553242
  H      -0.568224     -1.005324     -1.300077
  H      -1.803437     -1.944530     -0.468286
26
Coordinates from ORCA-job ./output/delta_3_carene/delta_3_carene E -66.600047759459
  C       3.089589     -0.934153     -0.433259
  C       1.794402     -0.198975     -0.255493
  C       1.424135      0.784052     -1.067069
  C       0.163774      1.577354     -0.966415
  C      -0.662405      1.275152      0.263013
  C      -0.261184      0.175000      1.194688
  C       0.980420     -0.641422      0.925382
  C      -1.500692      0.029964      0.355783
  C      -2.836284      0.124335      1.040971
  C      -1.462711     -0.941337     -0.798619
  H       3.035017     -1.930526      0.009065
  H       3.360015     -1.050623     -1.483029
  H       3.912734     -0.414348      0.063255
  H       2.070231      1.035501     -1.903586
  H      -0.423503      1.410636     -1.877514
  H       0.410485      2.641703     -0.982169
  H      -1.084614      2.159433      0.729014
  H      -0.424943      0.366113      2.250317
  H       0.738377     -1.701566      0.782210
  H       1.630575     -0.608084      1.804382
  H      -2.815783      0.833537      1.870106
  H      -3.611964      0.453642      0.345116
  H      -3.141882     -0.844879      1.442642
  H      -2.185820     -0.662955     -1.569307
  H      -0.482479     -0.985626     -1.270971
  H      -1.715489     -1.951925     -0.468513
26
Coordinates from ORCA-job ./output/delta_3_carene/delta_3_carene E -66.601313804985
  C       3.084879     -0.941773     -0.448636
  C       1.792121     -0.204209     -0.260579
  C       1.420677      0.766083     -1.082247
  C       0.174487      1.579033     -0.962239
  C      -0.673420      1.276073      0.251045
  C      -0.266666      0.177673      1.198730
  C       0.993519     -0.612639      0.939654
  C      -1.498291      0.019354      0.347191
  C      -2.831794      0.119203      1.035322
  C      -1.471213     -0.961075     -0.798008
  H       2.987748     -1.982755     -0.137727
  H       3.414328     -0.928824     -1.486015
  H       3.875238     -0.501820      0.162436
  H       2.056381      0.997679     -1.931340
  H      -0.409328      1.468696     -1.881644
  H       0.460982      2.633326     -0.930675
  H      -1.105598      2.152332      0.718347
  H      -0.449509      0.377515      2.247465
  H       0.779218     -1.682793      0.858722
  H       1.648573     -0.515640      1.810718
  H      -2.808256      0.835515      1.855911
  H      -3.605455      0.440162      0.335087
  H      -3.130476     -0.847658      1.444932
  H      -2.203317     -0.681237     -1.558260
  H      -0.501333     -1.020357     -1.279186
  H      -1.733496     -1.961859     -0.449007
26
Coordinates from ORCA-job ./output/delta_3_carene/delta_3_carene E -66.602247491903
  C       3.059487     -0.967421     -0.466693
  C       1.787290     -0.202043     -0.264641
  C       1.407672      0.755199     -1.097683
  C       0.180488      1.595768     -0.951523
  C      -0.679560      1.276711      0.240737
  C      -0.264841      0.195230      1.196796
  C       1.011560     -0.565144      0.964507
  C      -1.479459      0.013289      0.338725
  C      -2.815806      0.104982      1.022308
  C      -1.459880     -0.977520     -0.791793
  H       2.901014     -2.035860     -0.320926
  H       3.466662     -0.816764     -1.462973
  H       3.812234     -0.658537      0.259590
  H       2.020044      0.958109     -1.970004
  H      -0.406000      1.543634     -1.873154
  H       0.499165      2.637422     -0.874634
  H      -1.146224      2.142310      0.691614
  H      -0.477457      0.384840      2.240391
  H       0.822220     -1.642694      0.955112
  H       1.670132     -0.402548      1.821634
  H      -2.797401      0.829942      1.834124
  H      -3.591377      0.410368      0.319229
  H      -3.105325     -0.859030      1.441847
  H      -2.199308     -0.705629     -1.546054
  H      -0.493607     -1.043247     -1.279924
  H      -1.721722     -1.971364     -0.426612
26
Coordinates from ORCA-job ./output/delta_3_carene/delta_3_carene E -66.602519221367
  C       3.056718     -0.969887     -0.470158
  C       1.790626     -0.199120     -0.264884
  C       1.406438      0.750757     -1.105091
  C       0.182855      1.596309     -0.955747
  C      -0.684066      1.276111      0.231472
  C      -0.263959      0.201283      1.194802
  C       1.019296     -0.551306      0.969274
  C      -1.474725      0.008375      0.334939
  C      -2.809976      0.106128      1.025549
  C      -1.464595     -0.991775     -0.788267
  H       2.870541     -2.044302     -0.445586
  H       3.523517     -0.724452     -1.420875
  H       3.768111     -0.753717      0.328366
  H       2.020138      0.953985     -1.976144
  H      -0.403188      1.554497     -1.878053
  H       0.509455      2.635627     -0.869627
  H      -1.162106      2.139730      0.675994
  H      -0.483566      0.395244      2.236891
  H       0.833519     -1.629880      0.975573
  H       1.675755     -0.374253      1.825835
  H      -2.786738      0.838954      1.830649
  H      -3.589255      0.404918      0.323120
  H      -3.096695     -0.854595      1.455485
  H      -2.209115     -0.721787     -1.538524
  H      -0.501248     -1.065525     -1.283348
  H      -1.727736     -1.981319     -0.411645
26
Coordinates from ORCA-job ./output/delta_3_carene/delta_3_carene E -66.602640807816
  C       3.053571     -0.971796     -0.470482
  C       1.795691     -0.190547     -0.260266
  C       1.408510      0.756987     -1.102732
  C       0.181370      1.598020     -0.959842
  C      -0.684932      1.277292      0.229133
  C      -0.262232      0.207305      1.194197
  C       1.021929     -0.546943      0.971676
  C      -1.472580      0.008055      0.335300
  C      -2.807912      0.107061      1.028096
  C      -1.462643     -0.997141     -0.784504
  H       2.849428     -2.043403     -0.498965
  H       3.546491     -0.692256     -1.399033
  H       3.751405     -0.804073      0.351768
  H       2.024736      0.963178     -1.971573
  H      -0.405084      1.542290     -1.881954
  H       0.499259      2.640858     -0.883999
  H      -1.166964      2.142334      0.668090
  H      -0.480668      0.402121      2.237081
  H       0.830868     -1.625429      0.968449
  H       1.675670     -0.378932      1.831872
  H      -2.784383      0.843905      1.830191
  H      -3.590005      0.401846      0.326409
  H      -3.093798     -0.851937      1.463453
  H      -2.206741     -0.731171     -1.537042
  H      -0.498338     -1.070620     -1.279667
  H      -1.722650     -1.987003     -0.405654
26
Coordinates from ORCA-job ./output/delta_3_carene/delta_3_carene E -66.602706877506
  C       3.055795     -0.967748     -0.467224
  C       1.798842     -0.185494     -0.257251
  C       1.410902      0.762110     -1.099548
  C       0.177510      1.594479     -0.966593
  C      -0.684139      1.278224      0.228841
  C      -0.260730      0.210174      1.194480
  C       1.020068     -0.551549      0.969302
  C      -1.473891      0.009345      0.337979
  C      -2.808185      0.110779      1.032862
  C      -1.461934     -0.997591     -0.780764
  H       2.843344     -2.036483     -0.531949
  H       3.567958     -0.665693     -1.378670
  H       3.742233     -0.831412      0.370661
  H       2.031853      0.973607     -1.964058
  H      -0.409268      1.514597     -1.887303
  H       0.481506      2.642539     -0.909437
  H      -1.162207      2.147078      0.665373
  H      -0.472190      0.407558      2.238713
  H       0.819968     -1.628523      0.947328
  H       1.672041     -0.401241      1.833929
  H      -2.783592      0.849502      1.833587
  H      -3.592056      0.404585      0.332237
  H      -3.094782     -0.847054      1.471068
  H      -2.203994     -0.734057     -1.536487
  H      -0.495933     -1.068975     -1.274174
  H      -1.719119     -1.988757     -0.402898
26
Coordinates from ORCA-job ./output/delta_3_carene/delta_3_carene E -66.602726982013
  C       3.061497     -0.961831     -0.463076
  C       1.801368     -0.183810     -0.256275
  C       1.414188      0.764876     -1.097424
  C       0.174552      1.588797     -0.971625
  C      -0.682688      1.277243      0.228531
  C      -0.260080      0.208853      1.193544
  C       1.016973     -0.558338      0.964439
  C      -1.476374      0.010740      0.340272
  C      -2.809007      0.114621      1.036737
  C      -1.465038     -0.995426     -0.778591
  H       2.849901     -2.030008     -0.539471
  H       3.580782     -0.651971     -1.367766
  H       3.741969     -0.833408      0.380706
  H       2.038405      0.980332     -1.958635
  H      -0.412060      1.492335     -1.890888
  H       0.468149      2.640148     -0.927285
  H      -1.155163      2.148821      0.665355
  H      -0.466061      0.407348      2.238486
  H       0.811201     -1.633798      0.929166
  H       1.667388     -0.421034      1.832102
  H      -2.782127      0.853164      1.837419
  H      -3.593413      0.409925      0.337418
  H      -3.097000     -0.842568      1.475310
  H      -2.206213     -0.731488     -1.534975
  H      -0.498878     -1.066564     -1.271570
  H      -1.722271     -1.986959     -0.401905
26
Coordinates from ORCA-job ./output/delta_3_carene/delta_3_carene E -66.602736119365
  C       3.065433     -0.957868     -0.460281
  C       1.801938     -0.184345     -0.256812
  C       1.415617      0.765234     -1.097251
  C       0.172074      1.583965     -0.975068
  C      -0.681344      1.276526      0.228537
  C      -0.259561      0.207400      1.193027
  C       1.014489     -0.563232      0.960618
  C      -1.478138      0.012189      0.342324
  C      -2.809828      0.116971      1.039144
  C      -1.466637     -0.992732     -0.777175
  H       2.856317     -2.025926     -0.544112
  H       3.589575     -0.642151     -1.359914
  H       3.740274     -0.833250      0.388371
  H       2.041638      0.982961     -1.956528
  H      -0.414858      1.478746     -1.893040
  H       0.460294      2.636943     -0.938212
  H      -1.149512      2.149628      0.666430
  H      -0.462198      0.406761      2.238215
  H       0.806276     -1.637839      0.919698
  H       1.664808     -0.432034      1.829207
  H      -2.781740      0.854824      1.840214
  H      -3.594049      0.413599      0.340369
  H      -3.098576     -0.840138      1.477105
  H      -2.207373     -0.728144     -1.533674
  H      -0.500409     -1.063686     -1.269675
  H      -1.724510     -1.984401     -0.401515
26
Coordinates from ORCA-job ./output/delta_3_carene/delta_3_carene E -66.602738528672
  C       3.067398     -0.956321     -0.459199
  C       1.802489     -0.184621     -0.257128
  C       1.416591      0.765308     -1.097410
  C       0.171258      1.581835     -0.976456
  C      -0.680679      1.276026      0.228264
  C      -0.259315      0.206341      1.192416
  C       1.013587     -0.565261      0.958758
  C      -1.478905      0.012859      0.343147
  C      -2.810288      0.117837      1.040040
  C      -1.468048     -0.991690     -0.776677
  H       2.860044     -2.024553     -0.544521
  H       3.592656     -0.638832     -1.357450
  H       3.740039     -0.831563      0.391081
  H       2.043602      0.984398     -1.955548
  H      -0.415883      1.474483     -1.893939
  H       0.458042      2.635273     -0.941773
  H      -1.147270      2.149387      0.667145
  H      -0.461161      0.406256      2.237570
  H       0.805045     -1.639689      0.916823
  H       1.663830     -0.435661      1.827666
  H      -2.781583      0.855280      1.841412
  H      -3.594304      0.415184      0.341448
  H      -3.099305     -0.839325      1.477544
  H      -2.208940     -0.726520     -1.532785
  H      -0.502066     -1.063302     -1.269342
  H      -1.726833     -1.983128     -0.401087
26
Coordinates from ORCA-job ./output/delta_3_carene/delta_3_carene E -66.602739125227
  C       3.067407     -0.956445     -0.459266
  C       1.802333     -0.184915     -0.257373
  C       1.416448      0.764986     -1.097794
  C       0.171086      1.581573     -0.976715
  C      -0.680437      1.276079      0.228235
  C      -0.259104      0.206246      1.192336
  C       1.013611     -0.565392      0.958640
  C      -1.478880      0.013132      0.343442
  C      -2.810469      0.117715      1.039990
  C      -1.468035     -0.991450     -0.776554
  H       2.860427     -2.024640     -0.545788
  H       3.593266     -0.637780     -1.356748
  H       3.739069     -0.832266      0.391903
  H       2.043621      0.984336     -1.955721
  H      -0.416354      1.474821     -1.894055
  H       0.458416      2.634910     -0.942017
  H      -1.146976      2.149216      0.667659
  H      -0.461215      0.406674      2.237369
  H       0.805473     -1.639947      0.917865
  H       1.664165     -0.435081      1.827290
  H      -2.782020      0.855071      1.841485
  H      -3.594291      0.415043      0.341184
  H      -3.099343     -0.839581      1.477284
  H      -2.209045     -0.726222     -1.532541
  H      -0.502066     -1.063283     -1.269232
  H      -1.727090     -1.982798     -0.400877
