! wB97X-3c OPT FREQ TightSCF
%pal
  nprocs 40
end
* xyz 0 1
C      3.273321     0.238839     1.637380
C      2.270906     0.282258     0.534944
O      1.983245     1.385690    -0.003413
O      1.698634    -0.909721     0.077065
C      0.718270    -0.960726    -0.957366
C     -0.598196    -0.428513    -0.460320
C     -1.105810     0.790610    -0.940178
C     -2.321745     1.285031    -0.457566
C     -3.035799     0.569302     0.507496
C     -2.534337    -0.641601     0.992911
C     -1.318783    -1.139411     0.513107
H      4.295943     0.219809     1.206823
H      3.164787     1.132928     2.286966
H      3.119873    -0.671965     2.253277
H      0.584466    -2.018627    -1.267438
H      1.077127    -0.399995    -1.848364
H     -0.561478     1.358589    -1.684345
H     -2.709666     2.224097    -0.830606
H     -3.976346     0.953767     0.880337
H     -3.086654    -1.193752     1.742273
H     -0.937758    -2.076608     0.899856
*
