21
Coordinates from ORCA-job ./output/benzyl_acetate/benzyl_acetate E -89.417843294401
  C           3.27306836479808      0.34562300723552      1.51896936613034
  C           2.34188761265385      0.35346339900826      0.35057443797289
  O           2.16449400157305      1.28519761169730     -0.38596761231523
  O           1.71438451009749     -0.82064281408813      0.22129682736564
  C           0.73506905430256     -0.92615699599786     -0.82111946716416
  C          -0.60369366536614     -0.42849525920787     -0.36988582006541
  C          -1.02924997562079      0.85285999571657     -0.68665502965629
  C          -2.26384929111361      1.30592565162494     -0.25533432983341
  C          -3.08097375986653      0.48319868961559      0.49988668940955
  C          -2.66126416214897     -0.79643279639677      0.82274182931342
  C          -1.42901001059976     -1.24791849474234      0.38764688621500
  H           3.93118296756492     -0.51782532846099      1.46866901264404
  H           3.84912788971188      1.26377143712393      1.52786369651871
  H           2.69161887500615      0.26532334986088      2.43498155854380
  H           0.69654898113910     -1.98729555994167     -1.05130134607950
  H           1.08469961831405     -0.38029725063116     -1.69333507842597
  H          -0.38098685359775      1.49928202565090     -1.26153641230706
  H          -2.58749027390772      2.30605652616478     -0.50842095470826
  H          -4.04571808917493      0.83771831383526      0.83594902865248
  H          -3.29729837053227     -1.44415603376703      1.41012679882971
  H          -1.10254742323265     -2.24919847430012      0.63768891895970
