! wB97X-3c OPT FREQ TightSCF
%pal
  nprocs 40
end
* xyz 0 1
C     -2.035516    -0.829959    -1.027208
C     -2.316164     0.384875    -0.133194
C     -3.825321     0.556607     0.072965
C     -1.603122     0.249301     1.225143
O     -0.189551     0.148402     1.057082
C      0.632102     1.234027     0.732701
O      0.141391     2.392848     0.652030
C      2.081873     1.065182     0.493137
C      2.756046    -0.104176     0.483547
C      2.091090    -1.436687     0.702265
C      4.237082    -0.104772     0.212616
H     -2.559040    -0.718400    -2.000678
H     -2.382561    -1.765796    -0.538632
H     -0.947666    -0.914062    -1.233725
H     -1.937546     1.293085    -0.650678
H     -4.333659     0.688652    -0.906044
H     -4.255523    -0.331704     0.583883
H     -4.027298     1.458253     0.689797
H     -1.841264     1.117214     1.878880
H     -1.960650    -0.666947     1.742504
H      2.633051     1.979399     0.303783
H      1.648129    -1.480109     1.719276
H      2.827168    -2.264586     0.620062
H      1.308783    -1.604995    -0.067197
H      4.653528     0.921653     0.124049
H      4.765799    -0.620066     1.041946
H      4.438839    -0.647238    -0.734811
*
