27
Coordinates from ORCA-job ./output/2_butenoic_acid__3_methyl__2_methylpropyl_ester/2_butenoic_acid__3_methyl__2_methylpropyl_ester E -93.037139188963
  C      -2.035516     -0.829959     -1.027208
  C      -2.316164      0.384875     -0.133194
  C      -3.825321      0.556607      0.072965
  C      -1.603122      0.249301      1.225143
  O      -0.189551      0.148402      1.057082
  C       0.632102      1.234027      0.732701
  O       0.141391      2.392848      0.652030
  C       2.081873      1.065182      0.493137
  C       2.756046     -0.104176      0.483547
  C       2.091090     -1.436687      0.702265
  C       4.237082     -0.104772      0.212616
  H      -2.559040     -0.718400     -2.000678
  H      -2.382561     -1.765796     -0.538632
  H      -0.947666     -0.914062     -1.233725
  H      -1.937546      1.293085     -0.650678
  H      -4.333659      0.688652     -0.906044
  H      -4.255523     -0.331704      0.583883
  H      -4.027298      1.458253      0.689797
  H      -1.841264      1.117214      1.878880
  H      -1.960650     -0.666947      1.742504
  H       2.633051      1.979399      0.303783
  H       1.648129     -1.480109      1.719276
  H       2.827168     -2.264586      0.620062
  H       1.308783     -1.604995     -0.067197
  H       4.653528      0.921653      0.124049
  H       4.765799     -0.620066      1.041946
  H       4.438839     -0.647238     -0.734811
27
Coordinates from ORCA-job ./output/2_butenoic_acid__3_methyl__2_methylpropyl_ester/2_butenoic_acid__3_methyl__2_methylpropyl_ester E -93.055949126791
  C      -2.032942     -0.831500     -1.027542
  C      -2.276965      0.389783     -0.149245
  C      -3.766397      0.604856      0.084938
  C      -1.563119      0.256237      1.187010
  O      -0.164127      0.109611      1.032138
  C       0.569662      1.196231      0.732444
  O       0.055045      2.296973      0.662024
  C       2.003254      1.030130      0.500200
  C       2.704979     -0.113143      0.488765
  C       2.115526     -1.474792      0.712002
  C       4.174667     -0.066067      0.218499
  H      -2.555877     -0.725175     -1.978802
  H      -2.390196     -1.740072     -0.536999
  H      -0.970602     -0.949126     -1.242675
  H      -1.880721      1.270176     -0.660585
  H      -4.283150      0.739249     -0.865103
  H      -4.208471     -0.251934      0.599088
  H      -3.937986      1.497275      0.689531
  H      -1.771523      1.119615      1.822721
  H      -1.906254     -0.640344      1.703894
  H       2.519623      1.958909      0.315825
  H       1.682987     -1.544727      1.707585
  H       2.882394     -2.245230      0.623854
  H       1.343488     -1.684147     -0.024892
  H       4.544856      0.953406      0.123691
  H       4.716070     -0.553542      1.031312
  H       4.395780     -0.602651     -0.706178
27
Coordinates from ORCA-job ./output/2_butenoic_acid__3_methyl__2_methylpropyl_ester/2_butenoic_acid__3_methyl__2_methylpropyl_ester E -93.057778922161
  C      -2.033896     -0.847745     -1.026031
  C      -2.275721      0.384472     -0.168880
  C      -3.757306      0.591309      0.097205
  C      -1.541919      0.289011      1.153990
  O      -0.138177      0.135815      1.000191
  C       0.567144      1.234804      0.744054
  O       0.067729      2.331428      0.713421
  C       2.000116      1.035036      0.524288
  C       2.687494     -0.110623      0.490521
  C       2.103801     -1.478271      0.684456
  C       4.158629     -0.072069      0.235440
  H      -2.568009     -0.766517     -1.970824
  H      -2.380340     -1.748509     -0.518442
  H      -0.976795     -0.970210     -1.251219
  H      -1.896592      1.258876     -0.696195
  H      -4.300418      0.699103     -0.838861
  H      -4.181064     -0.256735      0.635799
  H      -3.928907      1.489656      0.687774
  H      -1.744206      1.161900      1.770888
  H      -1.861852     -0.601053      1.692644
  H       2.524148      1.966245      0.369085
  H       1.663516     -1.573612      1.672433
  H       2.873305     -2.238839      0.578926
  H       1.325077     -1.676713     -0.045527
  H       4.534325      0.943030      0.149760
  H       4.690818     -0.572182      1.043761
  H       4.389100     -0.607608     -0.685158
27
Coordinates from ORCA-job ./output/2_butenoic_acid__3_methyl__2_methylpropyl_ester/2_butenoic_acid__3_methyl__2_methylpropyl_ester E -93.057946555058
  C      -2.041497     -0.820486     -1.053456
  C      -2.285851      0.391868     -0.171842
  C      -3.764876      0.583015      0.114415
  C      -1.542771      0.280849      1.143153
  O      -0.135077      0.132127      0.973904
  C       0.566305      1.243671      0.744379
  O       0.062446      2.336286      0.675704
  C       2.001625      1.029160      0.517998
  C       2.689767     -0.114413      0.497015
  C       2.121297     -1.484364      0.718662
  C       4.160287     -0.076175      0.234384
  H      -2.576590     -0.724062     -1.997031
  H      -2.386863     -1.732985     -0.564979
  H      -0.984081     -0.939963     -1.281094
  H      -1.916507      1.281691     -0.683693
  H      -4.322286      0.699976     -0.813023
  H      -4.177328     -0.277515      0.643119
  H      -3.940228      1.469380      0.722521
  H      -1.738418      1.146859      1.771062
  H      -1.851353     -0.618991      1.674228
  H       2.522945      1.960134      0.345143
  H       1.687405     -1.569357      1.711467
  H       2.897866     -2.238340      0.615952
  H       1.330925     -1.703203      0.005988
  H       4.530600      0.937975      0.113959
  H       4.700238     -0.550830      1.053742
  H       4.392018     -0.642304     -0.668177
27
Coordinates from ORCA-job ./output/2_butenoic_acid__3_methyl__2_methylpropyl_ester/2_butenoic_acid__3_methyl__2_methylpropyl_ester E -93.057951198431
  C      -2.090789     -0.817596     -1.067726
  C      -2.315175      0.391377     -0.178703
  C      -3.784890      0.575028      0.154892
  C      -1.534438      0.286473      1.114429
  O      -0.127727      0.135244      0.897913
  C       0.573856      1.252972      0.663324
  O       0.081482      2.353717      0.636902
  C       2.021642      1.028011      0.496059
  C       2.709096     -0.114624      0.498067
  C       2.141561     -1.489188      0.692566
  C       4.190258     -0.074709      0.295637
  H      -2.645372     -0.720645     -2.001190
  H      -2.429047     -1.732029     -0.575180
  H      -1.037766     -0.941879     -1.316625
  H      -1.964437      1.286378     -0.698955
  H      -4.376126      0.684297     -0.753832
  H      -4.176267     -0.287377      0.698689
  H      -3.949173      1.461665      0.767352
  H      -1.705133      1.159677      1.740405
  H      -1.823432     -0.611208      1.662531
  H       2.549651      1.960964      0.349007
  H       1.665733     -1.582060      1.666958
  H       2.927425     -2.237507      0.615683
  H       1.373833     -1.711511     -0.045268
  H       4.563238      0.939386      0.173527
  H       4.698641     -0.537535      1.142939
  H       4.463355     -0.657322     -0.585904
27
Coordinates from ORCA-job ./output/2_butenoic_acid__3_methyl__2_methylpropyl_ester/2_butenoic_acid__3_methyl__2_methylpropyl_ester E -93.058149796553
  C      -2.058441     -0.831297     -1.048748
  C      -2.296166      0.387579     -0.175308
  C      -3.773364      0.578832      0.122695
  C      -1.540701      0.289703      1.134779
  O      -0.132890      0.137544      0.948828
  C       0.573741      1.250597      0.721461
  O       0.077389      2.348880      0.692913
  C       2.013671      1.033353      0.515435
  C       2.697812     -0.112140      0.494252
  C       2.121741     -1.482621      0.690407
  C       4.173863     -0.076329      0.258617
  H      -2.595149     -0.740427     -1.992702
  H      -2.407421     -1.739758     -0.553446
  H      -1.001367     -0.958017     -1.276916
  H      -1.932073      1.274550     -0.697079
  H      -4.342033      0.683117     -0.800360
  H      -4.179170     -0.277252      0.665264
  H      -3.946438      1.471799      0.722969
  H      -1.724401      1.166651      1.752658
  H      -1.843960     -0.602690      1.681990
  H       2.540034      1.965087      0.360961
  H       1.667472     -1.577020      1.674303
  H       2.898020     -2.238267      0.593163
  H       1.340418     -1.691542     -0.036407
  H       4.548985      0.937183      0.141806
  H       4.697927     -0.550670      1.089383
  H       4.422501     -0.646844     -0.637417
27
Coordinates from ORCA-job ./output/2_butenoic_acid__3_methyl__2_methylpropyl_ester/2_butenoic_acid__3_methyl__2_methylpropyl_ester E -93.058156817768
  C      -2.062449     -0.830425     -1.051152
  C      -2.296815      0.387375     -0.175441
  C      -3.773276      0.580850      0.124421
  C      -1.539953      0.286539      1.133457
  O      -0.132783      0.134099      0.943105
  C       0.573422      1.248171      0.720132
  O       0.075674      2.345715      0.693210
  C       2.013216      1.032718      0.513357
  C       2.698686     -0.112110      0.494160
  C       2.124464     -1.482924      0.692319
  C       4.174839     -0.074665      0.259919
  H      -2.598044     -0.736068     -1.995344
  H      -2.415000     -1.738635     -0.558073
  H      -1.005672     -0.960410     -1.278510
  H      -1.931424      1.274740     -0.695856
  H      -4.343260      0.686550     -0.797586
  H      -4.179625     -0.274993      0.666809
  H      -3.944361      1.473475      0.725671
  H      -1.720754      1.163442      1.751861
  H      -1.842355     -0.606083      1.680580
  H       2.538206      1.965017      0.358058
  H       1.668953     -1.576015      1.675682
  H       2.901775     -2.237714      0.597412
  H       1.343866     -1.694272     -0.034379
  H       4.548245      0.938750      0.137649
  H       4.698551     -0.543026      1.094246
  H       4.425876     -0.650101     -0.632211
27
Coordinates from ORCA-job ./output/2_butenoic_acid__3_methyl__2_methylpropyl_ester/2_butenoic_acid__3_methyl__2_methylpropyl_ester E -93.058161684095
  C      -2.068925     -0.832213     -1.052934
  C      -2.298137      0.385908     -0.176481
  C      -3.773592      0.583660      0.125344
  C      -1.539038      0.283345      1.130971
  O      -0.132360      0.131122      0.935091
  C       0.574609      1.246733      0.721532
  O       0.076772      2.344477      0.703395
  C       2.013969      1.032986      0.512411
  C       2.700288     -0.111494      0.493693
  C       2.127411     -1.482643      0.691998
  C       4.176647     -0.072567      0.261400
  H      -2.602192     -0.734197     -1.998012
  H      -2.427731     -1.738823     -0.561493
  H      -1.012498     -0.968155     -1.278137
  H      -1.930463      1.272534     -0.696543
  H      -4.345392      0.689218     -0.795510
  H      -4.180975     -0.270458      0.669632
  H      -3.941661      1.477369      0.725765
  H      -1.716651      1.161038      1.748912
  H      -1.839716     -0.609027      1.679220
  H       2.537887      1.965893      0.357660
  H       1.668809     -1.575045      1.673972
  H       2.905746     -2.236682      0.600270
  H       1.348587     -1.695761     -0.036001
  H       4.548292      0.940523      0.131861
  H       4.699387     -0.532953      1.100785
  H       4.430926     -0.654785     -0.625303
27
Coordinates from ORCA-job ./output/2_butenoic_acid__3_methyl__2_methylpropyl_ester/2_butenoic_acid__3_methyl__2_methylpropyl_ester E -93.058162685235
  C      -2.072392     -0.832741     -1.054256
  C      -2.299043      0.385380     -0.177127
  C      -3.773923      0.585238      0.126009
  C      -1.538609      0.281457      1.129442
  O      -0.132148      0.129739      0.931353
  C       0.575083      1.245898      0.721883
  O       0.077603      2.343941      0.708317
  C       2.014340      1.032864      0.511807
  C       2.701288     -0.111275      0.493794
  C       2.129219     -1.482590      0.693085
  C       4.177673     -0.071584      0.261712
  H      -2.605340     -0.733004     -1.999340
  H      -2.433334     -1.738776     -0.563309
  H      -1.016212     -0.970877     -1.279338
  H      -1.930305      1.271718     -0.697023
  H      -4.346535      0.691127     -0.794310
  H      -4.181832     -0.268148      0.671078
  H      -3.940201      1.479398      0.726267
  H      -1.715638      1.158688      1.748213
  H      -1.838406     -0.611451      1.677313
  H       2.537782      1.965964      0.356702
  H       1.668228     -1.573858      1.674049
  H       2.908452     -2.236078      0.604524
  H       1.352448     -1.697564     -0.036598
  H       4.548311      0.941487      0.129075
  H       4.700406     -0.528462      1.103053
  H       4.433082     -0.656489     -0.622877
27
Coordinates from ORCA-job ./output/2_butenoic_acid__3_methyl__2_methylpropyl_ester/2_butenoic_acid__3_methyl__2_methylpropyl_ester E -93.058163849432
  C      -2.076692     -0.832260     -1.056994
  C      -2.300258      0.385073     -0.177930
  C      -3.774371      0.587345      0.127134
  C      -1.538068      0.278132      1.127372
  O      -0.131905      0.127539      0.926580
  C       0.575380      1.244548      0.722595
  O       0.078463      2.342977      0.715373
  C       2.014504      1.032370      0.510454
  C       2.702575     -0.111112      0.494168
  C       2.131940     -1.482551      0.696896
  C       4.178778     -0.070452      0.260862
  H      -2.609304     -0.729586     -2.001968
  H      -2.440088     -1.738032     -0.567357
  H      -1.020800     -0.972681     -1.282119
  H      -1.930202      1.271450     -0.696916
  H      -4.347920      0.694350     -0.792488
  H      -4.182937     -0.265489      0.672612
  H      -3.938267      1.481676      0.727806
  H      -1.714950      1.153737      1.748522
  H      -1.836694     -0.616272      1.673523
  H       2.537102      1.965634      0.353446
  H       1.666091     -1.570531      1.675848
  H       2.912963     -2.235028      0.615530
  H       1.359596     -1.701984     -0.036259
  H       4.547755      0.942567      0.123084
  H       4.702455     -0.521998      1.104533
  H       4.434854     -0.659421     -0.620808
