27
Coordinates from ORCA-job ./output/2_butenoic_acid__3_methyl__2_methylpropyl_ester/2_butenoic_acid__3_methyl__2_methylpropyl_ester E -93.058163849432
  C          -2.07669152183335     -0.83225987290275     -1.05699393159918
  C          -2.30025768329108      0.38507270488091     -0.17792973932107
  C          -3.77437053228877      0.58734530940704      0.12713355838862
  C          -1.53806802172479      0.27813222484135      1.12737189560238
  O          -0.13190548531565      0.12753858461648      0.92657961876029
  C           0.57537977303686      1.24454829209512      0.72259511575779
  O           0.07846287071720      2.34297693255416      0.71537266920145
  C           2.01450426549073      1.03236991321010      0.51045391574702
  C           2.70257546699640     -0.11111235018328      0.49416830991767
  C           2.13193962968434     -1.48255147543382      0.69689641408695
  C           4.17877775779273     -0.07045186957292      0.26086223303137
  H          -2.60930377738892     -0.72958558891427     -2.00196785693186
  H          -2.44008822066055     -1.73803213031365     -0.56735692693642
  H          -1.02080031815646     -0.97268091690231     -1.28211906070042
  H          -1.93020151138976      1.27144992097674     -0.69691570591263
  H          -4.34792031356343      0.69435037125639     -0.79248831246159
  H          -4.18293682681551     -0.26548871387153      0.67261177475864
  H          -3.93826687399501      1.48167574133674      0.72780613199214
  H          -1.71495039753964      1.15373686165254      1.74852164019416
  H          -1.83669390440349     -0.61627231882998      1.67352293527279
  H           2.53710158589122      1.96563393162879      0.35344573448055
  H           1.66609093305031     -1.57053142930037      1.67584772070731
  H           2.91296290128312     -2.23502765809971      0.61553045815643
  H           1.35959570254063     -1.70198380151394     -0.03625888206353
  H           4.54775501144230      0.94256677261190      0.12308429435086
  H           4.70245539849178     -0.52199753261566      1.10453272067598
  H           4.43485409194880     -0.65942090261407     -0.62080772515570
