! wB97X-3c OPT FREQ TightSCF
%pal
  nprocs 40
end
* xyz 0 1
C     -3.165742    -2.840608     0.032479
C     -2.389255    -1.564851    -0.151105
C     -1.051592    -1.625929    -0.304533
C     -0.160019    -0.413115    -0.519111
C     -0.946592     0.948117    -0.569870
C     -2.260921     0.905803     0.228574
C     -3.129685    -0.254497    -0.245611
C     -0.107325     2.127088    -0.105876
C      0.729873     1.981687     0.932993
C      0.888191     0.637116     1.574279
C      1.059208    -0.447899     0.486240
C      2.428979    -0.361941    -0.279103
C      2.727399    -1.682415    -1.017108
C      3.627151    -0.038706     0.632769
C     -0.220446     3.463918    -0.786862
H     -2.849014    -3.339696     0.972559
H     -2.978955    -3.522862    -0.823852
H     -4.256883    -2.642630     0.088250
H     -0.568820    -2.600541    -0.293457
H      0.230731    -0.542724    -1.549818
H     -1.228532     1.126317    -1.633041
H     -2.819824     1.855710     0.078533
H     -2.068048     0.796548     1.316061
H     -3.434689    -0.088165    -1.301481
H     -4.049391    -0.288164     0.377464
H      1.345060     2.811250     1.270654
H      1.727669     0.647078     2.298304
H     -0.015235     0.410588     2.176926
H      1.066975    -1.415525     1.038674
H      2.366901     0.450013    -1.037725
H      1.921212    -1.952567    -1.727331
H      2.846257    -2.515066    -0.290800
H      3.665111    -1.590071    -1.605862
H      4.581583    -0.127895     0.070754
H      3.659595    -0.734580     1.498434
H      3.572152     1.008687     0.995955
H     -0.524282     4.236681    -0.049399
H      0.759733     3.744220    -1.227044
H     -0.978530     3.439624    -1.597338
*
