! wB97X-3c OPT FREQ TightSCF
%pal
  nprocs 40
end
* xyz 0 1
C     -2.542309    -0.310575    -0.513925
C     -1.311775     0.372903     0.101666
C     -1.786343     1.273395     1.223388
C     -1.569166     2.592330     1.216093
C     -0.260816    -0.645161     0.642782
C      0.211246    -1.683496    -0.402873
C      1.157632    -1.048378    -1.424840
C      2.412419    -0.498668    -0.730095
C      2.091681     0.247849     0.547666
C      0.933102     0.098555     1.213752
O      3.092801     0.349508    -1.616825
H     -3.342942     0.436045    -0.707532
H     -2.289778    -0.766644    -1.493221
H     -2.942055    -1.091764     0.167864
H     -0.841402     0.991689    -0.694407
H     -2.309682     0.832075     2.067281
H     -1.042786     3.071732     0.396608
H     -1.919157     3.203287     2.041681
H     -0.729755    -1.213943     1.476657
H      0.753327    -2.500692     0.123416
H     -0.640920    -2.167375    -0.919931
H      0.634922    -0.237808    -1.976029
H      1.459397    -1.815650    -2.170482
H      3.063145    -1.364141    -0.463873
H      2.883522     0.826583     1.014226
H      0.812201     0.616203     2.161028
H      4.023491     0.432142    -1.280076
*
