27
Coordinates from ORCA-job ./output/_z_p_mentha_1_7_8_dien_2_ol/_z_p_mentha_1_7_8_dien_2_ol E -82.638298102264
  C      -2.542309     -0.310575     -0.513925
  C      -1.311775      0.372903      0.101666
  C      -1.786343      1.273395      1.223388
  C      -1.569166      2.592330      1.216093
  C      -0.260816     -0.645161      0.642782
  C       0.211246     -1.683496     -0.402873
  C       1.157632     -1.048378     -1.424840
  C       2.412419     -0.498668     -0.730095
  C       2.091681      0.247849      0.547666
  C       0.933102      0.098555      1.213752
  O       3.092801      0.349508     -1.616825
  H      -3.342942      0.436045     -0.707532
  H      -2.289778     -0.766644     -1.493221
  H      -2.942055     -1.091764      0.167864
  H      -0.841402      0.991689     -0.694407
  H      -2.309682      0.832075      2.067281
  H      -1.042786      3.071732      0.396608
  H      -1.919157      3.203287      2.041681
  H      -0.729755     -1.213943      1.476657
  H       0.753327     -2.500692      0.123416
  H      -0.640920     -2.167375     -0.919931
  H       0.634922     -0.237808     -1.976029
  H       1.459397     -1.815650     -2.170482
  H       3.063145     -1.364141     -0.463873
  H       2.883522      0.826583      1.014226
  H       0.812201      0.616203      2.161028
  H       4.023491      0.432142     -1.280076
27
Coordinates from ORCA-job ./output/_z_p_mentha_1_7_8_dien_2_ol/_z_p_mentha_1_7_8_dien_2_ol E -82.646293663469
  C      -2.509553     -0.328545     -0.519405
  C      -1.301484      0.368859      0.107096
  C      -1.772696      1.272384      1.211593
  C      -1.574599      2.584180      1.219564
  C      -0.261913     -0.634934      0.645330
  C       0.205397     -1.655579     -0.391809
  C       1.150239     -1.028919     -1.407028
  C       2.399847     -0.510702     -0.725368
  C       2.083561      0.210796      0.556691
  C       0.924960      0.103697      1.200040
  O       3.090809      0.327822     -1.632145
  H      -3.295505      0.396174     -0.728912
  H      -2.248198     -0.798826     -1.466681
  H      -2.913993     -1.088435      0.151240
  H      -0.827935      0.982471     -0.661126
  H      -2.306255      0.817886      2.040714
  H      -1.041582      3.075388      0.415824
  H      -1.945260      3.190400      2.036086
  H      -0.733918     -1.185632      1.467058
  H       0.728307     -2.463936      0.126728
  H      -0.639619     -2.118217     -0.899614
  H       0.657271     -0.210244     -1.932994
  H       1.433844     -1.767322     -2.158086
  H       3.025862     -1.377452     -0.472932
  H       2.879925      0.789515      1.011485
  H       0.800068      0.633343      2.135862
  H       3.992419      0.415829     -1.329211
27
Coordinates from ORCA-job ./output/_z_p_mentha_1_7_8_dien_2_ol/_z_p_mentha_1_7_8_dien_2_ol E -82.647163483865
  C      -2.514843     -0.331973     -0.512998
  C      -1.309671      0.370251      0.107223
  C      -1.775224      1.273986      1.208331
  C      -1.598157      2.585277      1.227987
  C      -0.259164     -0.625668      0.637974
  C       0.209270     -1.645125     -0.395017
  C       1.158319     -1.025726     -1.405724
  C       2.410001     -0.531008     -0.721571
  C       2.095536      0.184747      0.559251
  C       0.926739      0.119452      1.179636
  O       3.111122      0.301922     -1.630820
  H      -3.297797      0.390685     -0.732643
  H      -2.255821     -0.823369     -1.447146
  H      -2.925667     -1.079143      0.165974
  H      -0.839730      0.991280     -0.655580
  H      -2.303195      0.803386      2.033743
  H      -1.072983      3.092268      0.428209
  H      -1.972297      3.184851      2.047303
  H      -0.728309     -1.170106      1.463217
  H       0.725360     -2.452747      0.127770
  H      -0.635438     -2.103561     -0.902498
  H       0.683989     -0.188683     -1.917097
  H       1.430271     -1.751037     -2.170927
  H       3.030625     -1.400932     -0.475430
  H       2.897555      0.762736      1.005976
  H       0.796511      0.665015      2.105466
  H       4.012999      0.403222     -1.330609
27
Coordinates from ORCA-job ./output/_z_p_mentha_1_7_8_dien_2_ol/_z_p_mentha_1_7_8_dien_2_ol E -82.647436697466
  C      -2.525836     -0.332801     -0.503355
  C      -1.319140      0.372945      0.104127
  C      -1.778636      1.274933      1.207919
  C      -1.621750      2.587410      1.237629
  C      -0.255816     -0.616201      0.627054
  C       0.211960     -1.638438     -0.403948
  C       1.169297     -1.026529     -1.409008
  C       2.425042     -0.552836     -0.717211
  C       2.108862      0.168456      0.558543
  C       0.929940      0.135614      1.159872
  O       3.136520      0.274416     -1.624567
  H      -3.307036      0.389976     -0.732623
  H      -2.272607     -0.847388     -1.427128
  H      -2.941765     -1.066167      0.189374
  H      -0.855833      1.000203     -0.660213
  H      -2.293770      0.788167      2.033555
  H      -1.111227      3.110310      0.437685
  H      -1.994325      3.180094      2.062492
  H      -0.719704     -1.157695      1.458204
  H       0.720956     -2.447879      0.124591
  H      -0.633867     -2.094400     -0.913356
  H       0.712638     -0.171017     -1.908325
  H       1.431592     -1.742221     -2.187335
  H       3.042674     -1.426199     -0.472451
  H       2.916139      0.743638      0.999953
  H       0.791988      0.699487      2.073845
  H       4.033703      0.394123     -1.315322
27
Coordinates from ORCA-job ./output/_z_p_mentha_1_7_8_dien_2_ol/_z_p_mentha_1_7_8_dien_2_ol E -82.647491757662
  C      -2.532488     -0.333046     -0.496635
  C      -1.322893      0.374116      0.101365
  C      -1.778571      1.274581      1.208782
  C      -1.631201      2.588111      1.240620
  C      -0.254178     -0.612140      0.620342
  C       0.212071     -1.635735     -0.410967
  C       1.174986     -1.026725     -1.412106
  C       2.432784     -0.563353     -0.715170
  C       2.114354      0.164898      0.556768
  C       0.931268      0.141958      1.151369
  O       3.150895      0.260198     -1.620053
  H      -3.312138      0.390057     -0.731463
  H      -2.284061     -0.860233     -1.414934
  H      -2.950345     -1.057262      0.205255
  H      -0.864647      1.001747     -0.666587
  H      -2.283696      0.781067      2.036876
  H      -1.131156      3.117485      0.438045
  H      -2.000781      3.178298      2.068633
  H      -0.713765     -1.153997      1.454277
  H       0.716562     -2.447295      0.119479
  H      -0.634186     -2.089697     -0.921996
  H       0.726995     -0.162704     -1.905511
  H       1.433414     -1.738385     -2.195707
  H       3.046854     -1.439097     -0.468906
  H       2.923510      0.738301      0.997077
  H       0.788400      0.714751      2.059075
  H       4.042015      0.394102     -1.297927
27
Coordinates from ORCA-job ./output/_z_p_mentha_1_7_8_dien_2_ol/_z_p_mentha_1_7_8_dien_2_ol E -82.647521679932
  C      -2.538561     -0.333679     -0.489112
  C      -1.325007      0.374315      0.099365
  C      -1.776331      1.274293      1.209806
  C      -1.636489      2.588795      1.239262
  C      -0.253044     -0.610378      0.614682
  C       0.211923     -1.633571     -0.418279
  C       1.179321     -1.025178     -1.415437
  C       2.438219     -0.570600     -0.713742
  C       2.117536      0.163386      0.555256
  C       0.932008      0.144421      1.145978
  O       3.163596      0.248996     -1.615881
  H      -3.316311      0.390102     -0.728624
  H      -2.295466     -0.871227     -1.402981
  H      -2.957506     -1.049146      0.221316
  H      -0.871744      1.000062     -0.673248
  H      -2.271206      0.777531      2.042056
  H      -1.146755      3.120989      0.432151
  H      -2.002233      3.178694      2.069234
  H      -0.708365     -1.154177      1.450037
  H       0.712641     -2.447871      0.111971
  H      -0.634486     -2.085005     -0.931357
  H       0.737556     -0.154896     -1.903758
  H       1.435533     -1.733744     -2.202655
  H       3.046812     -1.449573     -0.465338
  H       2.927394      0.735429      0.996026
  H       0.785270      0.722220      2.049861
  H       4.045697      0.399814     -1.276587
27
Coordinates from ORCA-job ./output/_z_p_mentha_1_7_8_dien_2_ol/_z_p_mentha_1_7_8_dien_2_ol E -82.647542491507
  C      -2.543781     -0.334898     -0.481247
  C      -1.326088      0.373486      0.098771
  C      -1.772574      1.274662      1.210618
  C      -1.638501      2.589933      1.234154
  C      -0.252456     -0.610790      0.610496
  C       0.211860     -1.631796     -0.425228
  C       1.182327     -1.022211     -1.418744
  C       2.441473     -0.574858     -0.712850
  C       2.119083      0.161957      0.554564
  C       0.932342      0.143645      1.143076
  O       3.174248      0.240694     -1.612407
  H      -3.319570      0.389819     -0.724178
  H      -2.305751     -0.880184     -1.391849
  H      -2.963167     -1.042994      0.236209
  H      -0.877044      0.996334     -0.678465
  H      -2.258248      0.777833      2.048047
  H      -1.157767      3.121724      0.421444
  H      -2.000390      3.181483      2.064693
  H      -0.704439     -1.157354      1.445936
  H       0.709801     -2.449124      0.103012
  H      -0.634567     -2.080263     -0.940735
  H       0.744415     -0.147822     -1.903071
  H       1.437623     -1.728393     -2.208350
  H       3.043776     -1.457566     -0.462489
  H       2.928767      0.733030      0.996966
  H       0.783324      0.722609      2.045811
  H       4.045302      0.411046     -1.254186
27
Coordinates from ORCA-job ./output/_z_p_mentha_1_7_8_dien_2_ol/_z_p_mentha_1_7_8_dien_2_ol E -82.647560435727
  C      -2.548920     -0.336726     -0.472385
  C      -1.326685      0.371506      0.099336
  C      -1.767082      1.275989      1.210887
  C      -1.637611      2.591851      1.225306
  C      -0.252392     -0.613325      0.607240
  C       0.211974     -1.630431     -0.432363
  C       1.184636     -1.018143     -1.422219
  C       2.443341     -0.577094     -0.712155
  C       2.119594      0.159517      0.554939
  C       0.932278      0.139908      1.141995
  O       3.183581      0.234508     -1.609003
  H      -3.322688      0.389321     -0.717455
  H      -2.316175     -0.888119     -1.380554
  H      -2.968166     -1.038425      0.251194
  H      -0.881272      0.990809     -0.682568
  H      -2.244007      0.781900      2.054781
  H      -1.165274      3.120462      0.405729
  H      -1.995249      3.186843      2.055256
  H      -0.702235     -1.163295      1.441513
  H       0.707841     -2.451161      0.092356
  H      -0.634352     -2.075327     -0.950934
  H       0.748859     -0.141125     -1.903395
  H       1.439973     -1.722204     -2.213586
  H       3.039086     -1.463877     -0.460362
  H       2.928420      0.729668      1.000269
  H       0.782235      0.716979      2.045765
  H       4.040290      0.429991     -1.229588
27
Coordinates from ORCA-job ./output/_z_p_mentha_1_7_8_dien_2_ol/_z_p_mentha_1_7_8_dien_2_ol E -82.647569661627
  C      -2.551062     -0.338068     -0.467688
  C      -1.326571      0.369696      0.100387
  C      -1.763104      1.277618      1.210336
  C      -1.634708      2.593617      1.218321
  C      -0.252768     -0.616206      0.606518
  C       0.211964     -1.630344     -0.435651
  C       1.185076     -1.015899     -1.423857
  C       2.443177     -0.576792     -0.712036
  C       2.119187      0.157062      0.556061
  C       0.932015      0.135687      1.142988
  O       3.186254      0.233525     -1.607572
  H      -3.324058      0.388800     -0.712498
  H      -2.320743     -0.890950     -1.375466
  H      -2.969672     -1.037931      0.257874
  H      -0.882167      0.987036     -0.683565
  H      -2.236533      0.787065      2.058246
  H      -1.165653      3.118690      0.394646
  H      -1.990035      3.191495      2.047178
  H      -0.703043     -1.167952      1.439244
  H       0.707321     -2.452929      0.086421
  H      -0.634323     -2.072964     -0.956170
  H       0.748958     -0.138898     -1.904518
  H       1.441018     -1.719264     -2.215582
  H       3.036405     -1.465423     -0.460345
  H       2.927207      0.726490      1.003965
  H       0.782698      0.709509      2.048958
  H       4.033158      0.447332     -1.216197
27
Coordinates from ORCA-job ./output/_z_p_mentha_1_7_8_dien_2_ol/_z_p_mentha_1_7_8_dien_2_ol E -82.647573191029
  C      -2.550878     -0.338378     -0.467344
  C      -1.326126      0.368772      0.100856
  C      -1.761451      1.278646      1.209415
  C      -1.631576      2.594497      1.215536
  C      -0.253209     -0.618010      0.607271
  C       0.211841     -1.631298     -0.435428
  C       1.184401     -1.016112     -1.423779
  C       2.442131     -0.575658     -0.712314
  C       2.118495      0.155542      0.556972
  C       0.931704      0.133052      1.144502
  O       3.183903      0.235607     -1.607918
  H      -3.324077      0.388746     -0.710669
  H      -2.320676     -0.889906     -1.375942
  H      -2.968911     -1.039488      0.257326
  H      -0.880882      0.985793     -0.682930
  H      -2.235645      0.790393      2.058303
  H      -1.161720      3.117583      0.391050
  H      -1.986388      3.193590      2.043702
  H      -0.705149     -1.169703      1.439058
  H       0.707680     -2.454014      0.085905
  H      -0.634420     -2.073467     -0.956388
  H       0.746928     -0.140426     -1.905548
  H       1.440883     -1.719833     -2.215026
  H       3.036471     -1.463925     -0.461554
  H       2.926167      0.724507      1.006219
  H       0.783611      0.704687      2.052066
  H       4.026893      0.458804     -1.213341
27
Coordinates from ORCA-job ./output/_z_p_mentha_1_7_8_dien_2_ol/_z_p_mentha_1_7_8_dien_2_ol E -82.647574327454
  C      -2.549596     -0.338013     -0.469111
  C      -1.325583      0.368832      0.100746
  C      -1.761558      1.278928      1.208815
  C      -1.629988      2.594615      1.216002
  C      -0.253347     -0.618334      0.608235
  C       0.211593     -1.632300     -0.433795
  C       1.183515     -1.017563     -1.423052
  C       2.441276     -0.575224     -0.712774
  C       2.118212      0.154992      0.557110
  C       0.931749      0.132387      1.145364
  O       3.180604      0.237250     -1.609176
  H      -3.323314      0.388932     -0.711361
  H      -2.318418     -0.887820     -1.378532
  H      -2.967408     -1.040922      0.253983
  H      -0.879153      0.986334     -0.682057
  H      -2.237896      0.791227      2.056875
  H      -1.158060      3.117468      0.392527
  H      -1.985374      3.193547      2.044020
  H      -0.706584     -1.169109      1.439917
  H       0.707943     -2.454392      0.088040
  H      -0.634763     -2.074941     -0.954254
  H       0.745101     -0.142987     -1.906032
  H       1.440052     -1.722000     -2.213681
  H       3.037575     -1.462448     -0.462782
  H       2.926054      0.723611      1.006562
  H       0.784622      0.703432      2.053445
  H       4.022746      0.464499     -1.215034
