27
Coordinates from ORCA-job ./output/_z_p_mentha_1_7_8_dien_2_ol/_z_p_mentha_1_7_8_dien_2_ol E -82.647574327454
  C          -2.54959608475603     -0.33801290996543     -0.46911085977551
  C          -1.32558303183522      0.36883180598985      0.10074584838979
  C          -1.76155760340870      1.27892826201022      1.20881464602342
  C          -1.62998756550885      2.59461517108675      1.21600153526608
  C          -0.25334717512657     -0.61833411133704      0.60823540718325
  C           0.21159272338796     -1.63230046764746     -0.43379511031206
  C           1.18351526489148     -1.01756265627525     -1.42305186171436
  C           2.44127599402354     -0.57522365134418     -0.71277378927533
  C           2.11821217104464      0.15499206864921      0.55711011143305
  C           0.93174902046622      0.13238736543312      1.14536419760346
  O           3.18060426711889      0.23725034520812     -1.60917626046265
  H          -3.32331396579220      0.38893200812635     -0.71136116120817
  H          -2.31841839519358     -0.88781951763103     -1.37853225851280
  H          -2.96740776646504     -1.04092186778700      0.25398268242727
  H          -0.87915291748231      0.98633359184076     -0.68205743928297
  H          -2.23789645403944      0.79122684183968      2.05687497774404
  H          -1.15805961301297      3.11746823093414      0.39252668409506
  H          -1.98537444008782      3.19354668361566      2.04402028482433
  H          -0.70658421396254     -1.16910889501778      1.43991708459905
  H           0.70794273495351     -2.45439228926254      0.08803995448147
  H          -0.63476308622300     -2.07494141901745     -0.95425425223636
  H           0.74510099748562     -0.14298723087715     -1.90603213529094
  H           1.44005236493731     -1.72199982612869     -2.21368065636194
  H           3.03757464004437     -1.46244807126121     -0.46278169209254
  H           2.92605355756623      0.72361066077904      1.00656202013341
  H           0.78462238318310      0.70343176211659      2.05344514693493
  H           4.02274619379138      0.46449911592273     -1.21503410461300
