! wB97X-3c OPT FREQ TightSCF
%pal
  nprocs 40
end
* xyz 0 1
C      4.142586     0.869256    -0.767379
C      2.960782     0.076107    -0.309445
C      1.743863     0.630583    -0.257285
C      0.520985    -0.092854     0.171900
C     -0.731598     0.427595    -0.195338
C     -1.923510    -0.215551     0.193683
C     -1.853574    -1.382801     0.965265
C     -0.609533    -1.898282     1.347379
C      0.569422    -1.258783     0.959562
O     -3.028876    -2.024425     1.352700
O     -3.189657     0.273413    -0.165018
C     -3.411325     1.444916    -0.943499
H      3.977319     1.233388    -1.803495
H      5.051460     0.231908    -0.752660
H      4.301852     1.736070    -0.091679
H      3.118433    -0.961230    -0.048817
H      1.633283     1.658694    -0.585073
H     -0.771326     1.329805    -0.791590
H     -0.555328    -2.794024     1.953144
H      1.508784    -1.670871     1.300068
H     -3.012529    -2.869559     1.911640
H     -2.991155     2.332850    -0.425568
H     -4.503002     1.592987    -1.072533
H     -2.947358     1.330807    -1.945963
*
