24
Coordinates from ORCA-job ./output/isoeugenol/isoeugenol E -96.248824852190
  C       4.142586      0.869256     -0.767379
  C       2.960782      0.076107     -0.309445
  C       1.743863      0.630583     -0.257285
  C       0.520985     -0.092854      0.171900
  C      -0.731598      0.427595     -0.195338
  C      -1.923510     -0.215551      0.193683
  C      -1.853574     -1.382801      0.965265
  C      -0.609533     -1.898282      1.347379
  C       0.569422     -1.258783      0.959562
  O      -3.028876     -2.024425      1.352700
  O      -3.189657      0.273413     -0.165018
  C      -3.411325      1.444916     -0.943499
  H       3.977319      1.233388     -1.803495
  H       5.051460      0.231908     -0.752660
  H       4.301852      1.736070     -0.091679
  H       3.118433     -0.961230     -0.048817
  H       1.633283      1.658694     -0.585073
  H      -0.771326      1.329805     -0.791590
  H      -0.555328     -2.794024      1.953144
  H       1.508784     -1.670871      1.300068
  H      -3.012529     -2.869559      1.911640
  H      -2.991155      2.332850     -0.425568
  H      -4.503002      1.592987     -1.072533
  H      -2.947358      1.330807     -1.945963
24
Coordinates from ORCA-job ./output/isoeugenol/isoeugenol E -96.266552323033
  C       4.105362      0.883770     -0.780323
  C       2.913632      0.091774     -0.321158
  C       1.694523      0.621271     -0.256613
  C       0.483228     -0.095162      0.179817
  C      -0.763062      0.410807     -0.182311
  C      -1.937247     -0.225588      0.198144
  C      -1.872919     -1.380882      0.960827
  C      -0.637984     -1.883524      1.339133
  C       0.531479     -1.247075      0.958632
  O      -3.037882     -1.984506      1.322337
  O      -3.169946      0.234259     -0.144066
  C      -3.288581      1.400469     -0.914474
  H       3.954466      1.248316     -1.796651
  H       5.003877      0.268285     -0.771405
  H       4.273669      1.738400     -0.124692
  H       3.075011     -0.945352     -0.057896
  H       1.565704      1.649483     -0.576539
  H      -0.811615      1.309751     -0.778666
  H      -0.587969     -2.777031      1.945565
  H       1.473140     -1.652192      1.297004
  H      -2.953671     -2.773036      1.847362
  H      -2.856629      2.257509     -0.391769
  H      -4.349532      1.575817     -1.064874
  H      -2.807058      1.274439     -1.887387
24
Coordinates from ORCA-job ./output/isoeugenol/isoeugenol E -96.268414674738
  C       4.106333      0.880223     -0.784999
  C       2.907376      0.096024     -0.329444
  C       1.687824      0.614165     -0.251372
  C       0.477892     -0.092278      0.191019
  C      -0.766461      0.410465     -0.176317
  C      -1.941912     -0.219463      0.192642
  C      -1.881087     -1.378969      0.956252
  C      -0.649890     -1.874798      1.336986
  C       0.519963     -1.239577      0.965111
  O      -3.045804     -1.965694      1.302024
  O      -3.170968      0.219137     -0.140832
  C      -3.275536      1.385370     -0.907224
  H       3.963261      1.256104     -1.795721
  H       5.001812      0.265694     -0.784393
  H       4.287599      1.730256     -0.130962
  H       3.066843     -0.943136     -0.068234
  H       1.550354      1.646427     -0.558178
  H      -0.808995      1.307938     -0.772765
  H      -0.605738     -2.768681      1.945626
  H       1.462457     -1.641902      1.305043
  H      -2.909387     -2.750717      1.826317
  H      -2.849694      2.242371     -0.385051
  H      -4.335507      1.553534     -1.059032
  H      -2.790736      1.267505     -1.876496
24
Coordinates from ORCA-job ./output/isoeugenol/isoeugenol E -96.268748962819
  C       4.113085      0.875960     -0.786522
  C       2.911714      0.097523     -0.334605
  C       1.692044      0.611471     -0.244856
  C       0.481664     -0.092231      0.197572
  C      -0.763154      0.411521     -0.174295
  C      -1.941047     -0.214280      0.188817
  C      -1.882575     -1.379387      0.956362
  C      -0.652937     -1.872743      1.339802
  C       0.519740     -1.238299      0.971269
  O      -3.052715     -1.963662      1.296868
  O      -3.174911      0.216448     -0.142870
  C      -3.289099      1.383643     -0.910327
  H       3.971461      1.266706     -1.793223
  H       5.006188      0.256459     -0.797674
  H       4.306727      1.720355     -0.126604
  H       3.068185     -0.944783     -0.081185
  H       1.549735      1.647368     -0.539712
  H      -0.799605      1.309822     -0.771005
  H      -0.612630     -2.766465      1.950434
  H       1.462700     -1.638619      1.313022
  H      -2.889265     -2.746968      1.820350
  H      -2.867541      2.245317     -0.391029
  H      -4.352156      1.543415     -1.058968
  H      -2.805612      1.271428     -1.881622
24
Coordinates from ORCA-job ./output/isoeugenol/isoeugenol E -96.268794632983
  C       4.113231      0.874943     -0.787779
  C       2.911300      0.099291     -0.338571
  C       1.692087      0.613154     -0.241000
  C       0.482037     -0.092141      0.200072
  C      -0.763922      0.411649     -0.174015
  C      -1.940807     -0.213734      0.188047
  C      -1.882938     -1.380423      0.957972
  C      -0.654282     -1.872671      1.343118
  C       0.519781     -1.237522      0.974815
  O      -3.055912     -1.966620      1.298416
  O      -3.175755      0.215608     -0.145078
  C      -3.289487      1.383237     -0.913804
  H       3.969897      1.279200     -1.789622
  H       5.003095      0.250226     -0.810845
  H       4.316704      1.712057     -0.120433
  H       3.064735     -0.945578     -0.092830
  H       1.547487      1.651182     -0.527860
  H      -0.798906      1.310257     -0.771556
  H      -0.614774     -2.765856      1.954820
  H       1.463418     -1.635799      1.317259
  H      -2.884165     -2.749702      1.821854
  H      -2.867297      2.244923     -0.393977
  H      -4.352400      1.544017     -1.064837
  H      -2.803130      1.270298     -1.884169
24
Coordinates from ORCA-job ./output/isoeugenol/isoeugenol E -96.268804775126
  C       4.113332      0.873337     -0.788190
  C       2.909992      0.099626     -0.341719
  C       1.692096      0.615706     -0.238173
  C       0.482217     -0.090821      0.201905
  C      -0.764259      0.412522     -0.173911
  C      -1.940291     -0.213681      0.187636
  C      -1.882052     -1.380046      0.958577
  C      -0.654187     -1.871554      1.345272
  C       0.520289     -1.235432      0.977349
  O      -3.055643     -1.967464      1.298919
  O      -3.175784      0.214356     -0.146861
  C      -3.290357      1.381659     -0.916439
  H       3.967406      1.291294     -1.784106
  H       4.999128      0.243361     -0.823928
  H       4.326290      1.701329     -0.112295
  H       3.059795     -0.947344     -0.102563
  H       1.547541      1.655463     -0.518637
  H      -0.798565      1.310639     -0.772029
  H      -0.614566     -2.764254      1.957543
  H       1.464333     -1.632064      1.320575
  H      -2.882446     -2.750172      1.822172
  H      -2.868660      2.243460     -0.396332
  H      -4.353106      1.542013     -1.068754
  H      -2.802503      1.268067     -1.886011
24
Coordinates from ORCA-job ./output/isoeugenol/isoeugenol E -96.268822720750
  C       4.113168      0.869467     -0.789478
  C       2.905988      0.099819     -0.349281
  C       1.691835      0.621967     -0.231543
  C       0.482179     -0.086787      0.206705
  C      -0.764970      0.414682     -0.173379
  C      -1.939376     -0.213919      0.186682
  C      -1.880099     -1.378977      0.959736
  C      -0.653536     -1.868137      1.350533
  C       0.521188     -1.229427      0.984007
  O      -3.054105     -1.968689      1.298966
  O      -3.175452      0.210620     -0.151339
  C      -3.291061      1.376915     -0.922718
  H       3.958916      1.324061     -1.767953
  H       4.987856      0.227065     -0.860851
  H       4.351256      1.671124     -0.090438
  H       3.047117     -0.951800     -0.125490
  H       1.548790      1.665740     -0.497179
  H      -0.798105      1.311582     -0.773107
  H      -0.613182     -2.759538      1.964409
  H       1.465996     -1.621974      1.329837
  H      -2.879676     -2.750880      1.822396
  H      -2.871462      2.239317     -0.401907
  H      -4.353478      1.535595     -1.078182
  H      -2.799790      1.262174     -1.890429
24
Coordinates from ORCA-job ./output/isoeugenol/isoeugenol E -96.268906117472
  C       4.111353      0.851854     -0.796874
  C       2.886107      0.101902     -0.384315
  C       1.691529      0.650123     -0.199179
  C       0.482210     -0.067424      0.230479
  C      -0.766954      0.424280     -0.169989
  C      -1.934933     -0.215185      0.182358
  C      -1.871543     -1.373847      0.965639
  C      -0.650300     -1.851091      1.376330
  C       0.524873     -1.200769      1.016973
  O      -3.046842     -1.973343      1.298015
  O      -3.172943      0.192429     -0.173023
  C      -3.292828      1.353210     -0.953632
  H       3.923865      1.484068     -1.664570
  H       4.920091      0.171587     -1.054374
  H       4.473934      1.501224      0.000566
  H       2.986225     -0.967282     -0.231804
  H       1.558707      1.710095     -0.395723
  H      -0.794842      1.315402     -0.777436
  H      -0.606774     -2.736051      1.998351
  H       1.472440     -1.574360      1.376163
  H      -2.868652     -2.752802      1.823260
  H      -2.884598      2.219765     -0.430741
  H      -4.353906      1.502592     -1.123690
  H      -2.786221      1.233620     -1.912781
24
Coordinates from ORCA-job ./output/isoeugenol/isoeugenol E -96.269018372668
  C       4.108609      0.837280     -0.803455
  C       2.868456      0.106182     -0.410860
  C       1.691622      0.672786     -0.172799
  C       0.482164     -0.051114      0.249901
  C      -0.768026      0.431592     -0.167835
  C      -1.930975     -0.216609      0.178552
  C      -1.864398     -1.369410      0.970673
  C      -0.647347     -1.836269      1.397964
  C       0.527681     -1.176474      1.044495
  O      -3.040179     -1.976575      1.296890
  O      -3.169959      0.176837     -0.191210
  C      -3.292944      1.332793     -0.979486
  H       3.908757      1.609425     -1.545906
  H       4.845928      0.157235     -1.224499
  H       4.575289      1.331652      0.049569
  H       2.933958     -0.972196     -0.312191
  H       1.569366      1.742370     -0.315358
  H      -0.791798      1.317659     -0.781990
  H      -0.601202     -2.715683      2.026940
  H       1.477137     -1.534555      1.414562
  H      -2.860438     -2.753712      1.824253
  H      -2.894757      2.203139     -0.455290
  H      -4.352836      1.473953     -1.161371
  H      -2.774112      1.209693     -1.931549
24
Coordinates from ORCA-job ./output/isoeugenol/isoeugenol E -96.269159818733
  C       4.106983      0.826559     -0.806516
  C       2.855418      0.109048     -0.427171
  C       1.691284      0.688089     -0.158124
  C       0.481528     -0.038819      0.261170
  C      -0.768842      0.436789     -0.167204
  C      -1.928605     -0.217951      0.175797
  C      -1.859025     -1.366448      0.972967
  C      -0.643777     -1.825534      1.410854
  C       0.529799     -1.158755      1.061330
  O      -3.033510     -1.978393      1.294603
  O      -3.167748      0.165916     -0.202424
  C      -3.293055      1.318916     -0.994598
  H       3.909969      1.679223     -1.455038
  H       4.792171      0.163340     -1.329646
  H       4.635935      1.210336      0.066908
  H       2.897218     -0.972972     -0.359234
  H       1.577903      1.762116     -0.270014
  H      -0.790947      1.319517     -0.785670
  H      -0.594811     -2.701094      2.044546
  H       1.480452     -1.506003      1.438900
  H      -2.855951     -2.754310      1.823787
  H      -2.902729      2.192000     -0.469419
  H      -4.352375      1.453400     -1.183273
  H      -2.767284      1.195029     -1.942533
24
Coordinates from ORCA-job ./output/isoeugenol/isoeugenol E -96.267199931208
  C       4.119558      0.804172     -0.776199
  C       2.832118      0.083560     -0.426806
  C       1.682655      0.703222     -0.202996
  C       0.468284     -0.004765      0.230191
  C      -0.773494      0.446922     -0.180719
  C      -1.938496     -0.223702      0.173017
  C      -1.848322     -1.361703      0.957782
  C      -0.608003     -1.800545      1.387474
  C       0.537399     -1.122440      1.035326
  O      -2.989009     -1.963281      1.270111
  O      -3.169821      0.151463     -0.187597
  C      -3.301370      1.303835     -0.963807
  H       3.932239      1.653961     -1.419765
  H       4.814443      0.144144     -1.279170
  H       4.617800      1.154436      0.123722
  H       2.858308     -0.994902     -0.322050
  H       1.607917      1.774005     -0.366390
  H      -0.819919      1.328759     -0.799539
  H      -0.533637     -2.672516      2.024435
  H       1.491039     -1.460251      1.417696
  H      -2.875854     -2.745512      1.804441
  H      -2.935917      2.186812     -0.443252
  H      -4.367112      1.410556     -1.131143
  H      -2.800810      1.203767     -1.924762
24
Coordinates from ORCA-job ./output/isoeugenol/isoeugenol E -96.269571524852
  C       4.110236      0.813633     -0.801368
  C       2.843411      0.104617     -0.436870
  C       1.690050      0.700741     -0.161391
  C       0.478229     -0.021507      0.261078
  C      -0.770362      0.442384     -0.169703
  C      -1.929966     -0.219896      0.173044
  C      -1.853788     -1.364282      0.971201
  C      -0.632666     -1.811401      1.414544
  C       0.532871     -1.137297      1.067372
  O      -3.019965     -1.977726      1.286891
  O      -3.167853      0.155168     -0.206652
  C      -3.296778      1.306298     -0.997689
  H       3.919044      1.720193     -1.371209
  H       4.757868      0.174412     -1.395684
  H       4.675791      1.101939      0.084863
  H       2.868469     -0.978077     -0.375486
  H       1.591861      1.776336     -0.271366
  H      -0.798216      1.322685     -0.791610
  H      -0.576125     -2.682971      2.053343
  H       1.484416     -1.474178      1.452664
  H      -2.857171     -2.753645      1.820052
  H      -2.918533      2.184692     -0.473814
  H      -4.357765      1.428819     -1.185341
  H      -2.773058      1.189063     -1.946868
24
Coordinates from ORCA-job ./output/isoeugenol/isoeugenol E -96.269799820403
  C       4.107125      0.811979     -0.806049
  C       2.839770      0.107632     -0.442525
  C       1.691558      0.705335     -0.149136
  C       0.478909     -0.018732      0.268326
  C      -0.769279      0.442501     -0.168071
  C      -1.928515     -0.220032      0.172539
  C      -1.853536     -1.362361      0.975303
  C      -0.633900     -1.806605      1.423679
  C       0.532477     -1.132411      1.077467
  O      -3.020640     -1.976557      1.288830
  O      -3.166117      0.150986     -0.213124
  C      -3.294285      1.299006     -1.009352
  H       3.917157      1.757760     -1.308966
  H       4.719913      0.199109     -1.462567
  H       4.709283      1.030560      0.076343
  H       2.857417     -0.976264     -0.399025
  H       1.597458      1.783106     -0.239708
  H      -0.795716      1.321086     -0.792599
  H      -0.578589     -2.676518      2.064878
  H       1.483886     -1.466761      1.465284
  H      -2.854846     -2.751071      1.823463
  H      -2.917685      2.179631     -0.487792
  H      -4.354790      1.420198     -1.200894
  H      -2.767058      1.178421     -1.956305
24
Coordinates from ORCA-job ./output/isoeugenol/isoeugenol E -96.270004446955
  C       4.095380      0.855844     -0.820009
  C       2.886969      0.103386     -0.408867
  C       1.705668      0.651958     -0.152766
  C       0.487801     -0.058511      0.260732
  C      -0.757275      0.412318     -0.163900
  C      -1.931907     -0.217514      0.178658
  C      -1.881319     -1.366218      0.991557
  C      -0.658693     -1.822706      1.424816
  C       0.519480     -1.181585      1.070421
  O      -3.060899     -1.963324      1.315426
  O      -3.167827      0.176009     -0.206904
  C      -3.281341      1.320201     -1.015138
  H       3.827194      1.781173     -1.333184
  H       4.728159      0.267713     -1.487494
  H       4.700867      1.120352      0.050187
  H       2.991679     -0.974294     -0.324474
  H       1.599493      1.726657     -0.273962
  H      -0.789487      1.292147     -0.790918
  H      -0.628257     -2.697462      2.064171
  H       1.461966     -1.550493      1.446797
  H      -2.860600     -2.730440      1.856183
  H      -2.882251      2.203773     -0.511229
  H      -4.342101      1.462952     -1.202342
  H      -2.762701      1.188064     -1.967761
24
Coordinates from ORCA-job ./output/isoeugenol/isoeugenol E -96.270760905119
  C       4.102729      0.837550     -0.808714
  C       2.867495      0.104296     -0.420923
  C       1.698910      0.675515     -0.156847
  C       0.482949     -0.038982      0.259649
  C      -0.763769      0.424290     -0.170187
  C      -1.931908     -0.218850      0.175638
  C      -1.869671     -1.361015      0.988612
  C      -0.646427     -1.809376      1.428225
  C       0.525769     -1.155698      1.072844
  O      -3.042367     -1.965299      1.311717
  O      -3.168583      0.163089     -0.211331
  C      -3.289522      1.304500     -1.019824
  H       3.870483      1.816982     -1.225655
  H       4.680100      0.280850     -1.546399
  H       4.752187      0.989458      0.055722
  H       2.938467     -0.976494     -0.346524
  H       1.600386      1.751127     -0.272484
  H      -0.796993      1.300927     -0.799669
  H      -0.604573     -2.680009      2.071371
  H       1.472941     -1.509643      1.452768
  H      -2.858827     -2.732979      1.854176
  H      -2.899953      2.189992     -0.513951
  H      -4.350537      1.436677     -1.207709
  H      -2.769288      1.173092     -1.970506
24
Coordinates from ORCA-job ./output/isoeugenol/isoeugenol E -96.271061027731
  C       4.105692      0.836337     -0.801894
  C       2.866811      0.103147     -0.416783
  C       1.696311      0.676407     -0.167377
  C       0.481256     -0.036834      0.253669
  C      -0.765605      0.424703     -0.175344
  C      -1.933139     -0.220009      0.174316
  C      -1.868056     -1.359080      0.987636
  C      -0.643336     -1.806071      1.426946
  C       0.526790     -1.151027      1.069372
  O      -3.038111     -1.963064      1.313811
  O      -3.169528      0.161218     -0.210600
  C      -3.292085      1.301632     -1.018833
  H       3.879139      1.833874     -1.174654
  H       4.659234      0.300461     -1.571968
  H       4.775027      0.942599      0.053604
  H       2.940250     -0.976277     -0.328515
  H       1.597430      1.749931     -0.299232
  H      -0.801188      1.299750     -0.806432
  H      -0.599006     -2.674895      2.072136
  H       1.474531     -1.502877      1.449976
  H      -2.860857     -2.729611      1.858930
  H      -2.903988      2.187842     -0.513813
  H      -4.353484      1.431646     -1.204606
  H      -2.774088      1.170198     -1.970345
24
Coordinates from ORCA-job ./output/isoeugenol/isoeugenol E -96.271404427284
  C       4.107641      0.840537     -0.795498
  C       2.872649      0.102265     -0.404606
  C       1.694400      0.670045     -0.181756
  C       0.480302     -0.039853      0.246163
  C      -0.766322      0.421559     -0.181071
  C      -1.934827     -0.221113      0.173135
  C      -1.869327     -1.357419      0.987951
  C      -0.643195     -1.804891      1.425685
  C       0.526164     -1.151967      1.064879
  O      -3.038133     -1.959216      1.318567
  O      -3.170785      0.162219     -0.209282
  C      -3.293511      1.301526     -1.018154
  H       3.880544      1.856938     -1.111436
  H       4.628204      0.335663     -1.608521
  H       4.806047      0.894902      0.041135
  H       2.961641     -0.973352     -0.288712
  H       1.591016      1.739052     -0.342847
  H      -0.804296      1.294815     -0.814369
  H      -0.599010     -2.672087      2.073057
  H       1.473332     -1.505155      1.445699
  H      -2.863928     -2.723439      1.867602
  H      -2.904670      2.188460     -0.515271
  H      -4.355310      1.431583     -1.201318
  H      -2.778628      1.168927     -1.971036
24
Coordinates from ORCA-job ./output/isoeugenol/isoeugenol E -96.271728631697
  C       4.108630      0.847842     -0.789695
  C       2.883470      0.104768     -0.380748
  C       1.692510      0.659818     -0.197495
  C       0.479741     -0.046810      0.237668
  C      -0.766667      0.416278     -0.187341
  C      -1.936601     -0.221840      0.171922
  C      -1.872214     -1.355808      0.989353
  C      -0.645494     -1.805427      1.424819
  C       0.524408     -1.157139      1.059343
  O      -3.041316     -1.954124      1.325216
  O      -3.172290      0.164949     -0.207859
  C      -3.293931      1.302376     -1.019385
  H       3.883747      1.886530     -1.024143
  H       4.573401      0.389599     -1.662749
  H       4.852727      0.832768      0.008129
  H       2.995687     -0.963399     -0.222733
  H       1.579052      1.720529     -0.400778
  H      -0.805694      1.287994     -0.822745
  H      -0.602905     -2.671107      2.074394
  H       1.470591     -1.513495      1.439595
  H      -2.866789     -2.715013      1.878815
  H      -2.901443      2.189840     -0.520220
  H      -4.355977      1.434890     -1.199678
  H      -2.782646      1.165980     -1.973685
24
Coordinates from ORCA-job ./output/isoeugenol/isoeugenol E -96.271778472867
  C       4.114165      0.866641     -0.773785
  C       2.906338      0.112801     -0.319870
  C       1.686537      0.628506     -0.247446
  C       0.477977     -0.070956      0.206702
  C      -0.768124      0.405897     -0.200227
  C      -1.941389     -0.222271      0.172815
  C      -1.877719     -1.357634      0.982642
  C      -0.648873     -1.822172      1.401197
  C       0.521385     -1.184608      1.023980
  O      -3.046032     -1.945794      1.331695
  O      -3.176027      0.181508     -0.188080
  C      -3.294960      1.322401     -0.993464
  H       3.860575      1.881774     -1.070857
  H       4.587965      0.369932     -1.620086
  H       4.859481      0.918830      0.019809
  H       3.066201     -0.924951     -0.045931
  H       1.547393      1.656453     -0.568383
  H      -0.808631      1.280762     -0.830689
  H      -0.606851     -2.690422      2.047100
  H       1.465951     -1.554895      1.394671
  H      -2.879776     -2.705502      1.888415
  H      -2.888818      2.204333     -0.496213
  H      -4.357837      1.465356     -1.158930
  H      -2.798932      1.184010     -1.955066
24
Coordinates from ORCA-job ./output/isoeugenol/isoeugenol E -96.271735384938
  C       4.108795      0.859052     -0.785581
  C       2.901428      0.116785     -0.336628
  C       1.690865      0.645949     -0.213401
  C       0.480101     -0.059895      0.228632
  C      -0.766205      0.407878     -0.193559
  C      -1.938199     -0.221658      0.171002
  C      -1.877419     -1.354486      0.993069
  C      -0.651728     -1.809412      1.424577
  C       0.520846     -1.169727      1.052182
  O      -3.049925     -1.946465      1.334296
  O      -3.174222      0.169716     -0.206074
  C      -3.292743      1.303969     -1.023970
  H       3.901746      1.921576     -0.904018
  H       4.474942      0.471800     -1.737935
  H       4.921562      0.750190     -0.065810
  H       3.042920     -0.936189     -0.113144
  H       1.556446      1.691078     -0.475790
  H      -0.801412      1.278712     -0.830780
  H      -0.611599     -2.674864      2.074756
  H       1.465646     -1.533245      1.428342
  H      -2.870149     -2.704069      1.891719
  H      -2.892574      2.191679     -0.530800
  H      -4.354668      1.442206     -1.202071
  H      -2.784458      1.159420     -1.979017
24
Coordinates from ORCA-job ./output/isoeugenol/isoeugenol E -96.271837812930
  C       4.111313      0.860852     -0.781600
  C       2.901622      0.113145     -0.336147
  C       1.689413      0.640710     -0.225138
  C       0.479386     -0.063396      0.220778
  C      -0.767036      0.408213     -0.194668
  C      -1.939339     -0.221433      0.172506
  C      -1.877114     -1.356332      0.988493
  C      -0.650044     -1.815344      1.414094
  C       0.521474     -1.175823      1.040388
  O      -3.047952     -1.947080      1.332087
  O      -3.174995      0.174878     -0.197669
  C      -3.293797      1.312539     -1.009610
  H       3.876427      1.899351     -1.007870
  H       4.546097      0.406049     -1.672238
  H       4.882386      0.847578     -0.010380
  H       3.045492     -0.936632     -0.100853
  H       1.553999      1.681965     -0.502043
  H      -0.803845      1.281435     -0.828192
  H      -0.608413     -2.682791      2.061368
  H       1.466483     -1.542400      1.413295
  H      -2.873922     -2.707005      1.887358
  H      -2.891335      2.197536     -0.513977
  H      -4.356124      1.452662     -1.182668
  H      -2.790178      1.171320     -1.967312
24
Coordinates from ORCA-job ./output/isoeugenol/isoeugenol E -96.271839405370
  C       4.111254      0.862104     -0.781151
  C       2.902843      0.113530     -0.334100
  C       1.689304      0.638914     -0.227360
  C       0.479557     -0.065150      0.219428
  C      -0.766833      0.407547     -0.194744
  C      -1.939455     -0.221368      0.172818
  C      -1.877544     -1.356698      0.988154
  C      -0.650424     -1.816779      1.412669
  C       0.521249     -1.178020      1.038542
  O      -3.048563     -1.946464      1.332344
  O      -3.175022      0.176140     -0.196236
  C      -3.293317      1.314082     -1.007870
  H       3.872774      1.897302     -1.018527
  H       4.551587      0.400858     -1.665763
  H       4.879152      0.859739     -0.006648
  H       3.048425     -0.934878     -0.093932
  H       1.551802      1.678552     -0.509192
  H      -0.803053      1.281219     -0.827707
  H      -0.608709     -2.684492      2.059581
  H       1.466038     -1.545639      1.410982
  H      -2.875140     -2.706861      1.887155
  H      -2.889950      2.198675     -0.512277
  H      -4.355641      1.454998     -1.180299
  H      -2.790336      1.172684     -1.965868
24
Coordinates from ORCA-job ./output/isoeugenol/isoeugenol E -96.271840125972
  C       4.111217      0.863711     -0.780516
  C       2.904510      0.114344     -0.331057
  C       1.689116      0.636647     -0.230244
  C       0.479781     -0.067317      0.217754
  C      -0.766618      0.406595     -0.194977
  C      -1.939623     -0.221142      0.173326
  C      -1.878139     -1.356868      0.988223
  C      -0.650967     -1.818313      1.411237
  C       0.520967     -1.180767      1.036221
  O      -3.049439     -1.945516      1.333125
  O      -3.175145      0.177795     -0.194417
  C      -3.292806      1.315790     -1.006171
  H       3.869276      1.895970     -1.027217
  H       4.555525      0.397118     -1.660400
  H       4.877153      0.870881     -0.004091
  H       3.052326     -0.932110     -0.083822
  H       1.548670      1.674112     -0.518504
  H      -0.801959      1.280682     -0.827444
  H      -0.609087     -2.686440      2.057593
  H       1.465520     -1.550071      1.407591
  H      -2.876411     -2.706611      1.887146
  H      -2.888253      2.200061     -0.510959
  H      -4.355115      1.457685     -1.177961
  H      -2.790502      1.173763     -1.964436
24
Coordinates from ORCA-job ./output/isoeugenol/isoeugenol E -96.271840187919
  C       4.111177      0.863770     -0.780643
  C       2.904497      0.114396     -0.331356
  C       1.689163      0.636740     -0.229974
  C       0.479827     -0.067338      0.217890
  C      -0.766603      0.406571     -0.194832
  C      -1.939629     -0.221073      0.173451
  C      -1.878208     -1.356814      0.988444
  C      -0.651039     -1.818258      1.411423
  C       0.520947     -1.180808      1.036343
  O      -3.049561     -1.945335      1.333441
  O      -3.175151      0.177859     -0.194367
  C      -3.292688      1.315632     -1.006488
  H       3.869416      1.896374     -1.026111
  H       4.554979      0.397983     -1.661222
  H       4.877492      0.869859     -0.004574
  H       3.052022     -0.932223     -0.084646
  H       1.548557      1.674402     -0.517475
  H      -0.801786      1.280664     -0.827321
  H      -0.609108     -2.686378      2.057797
  H       1.465467     -1.550279      1.407621
  H      -2.876435     -2.706614      1.887194
  H      -2.888086      2.200022     -0.511513
  H      -4.354976      1.457555     -1.178424
  H      -2.790274      1.173291     -1.964658
