27
Coordinates from ORCA-job ./output/neral/neral E -82.628991504883
  C       2.463945     -0.982109      0.594007
  C       2.534391     -0.184756     -0.685095
  C       1.431546      0.106878     -1.411765
  C       0.025522     -0.257341     -1.004798
  C      -0.579861      0.827781     -0.106725
  C      -1.979523      0.453483      0.321088
  C      -2.143191     -0.474676      1.283153
  C      -3.454814     -0.917011      1.784870
  O      -3.514177     -1.793534      2.686073
  C      -3.155530      1.134197     -0.332466
  C       3.891431      0.249869     -1.175072
  H       3.474564     -1.104802      1.038125
  H       2.057013     -1.994508      0.390054
  H       1.824480     -0.466125      1.338594
  H       1.538874      0.656479     -2.343282
  H       0.001027     -1.248588     -0.504973
  H      -0.592252     -0.342004     -1.925256
  H      -0.589108      1.790477     -0.662823
  H       0.050894      0.987707      0.794030
  H      -1.265657     -0.932717      1.726161
  H      -4.376935     -0.505861      1.397511
  H      -3.805404      0.378412     -0.821919
  H      -3.740794      1.692386      0.428428
  H      -2.828262      1.853430     -1.111941
  H       3.826589      0.889166     -2.081624
  H       4.500251     -0.645983     -1.418298
  H       4.404980      0.829749     -0.379662
27
Coordinates from ORCA-job ./output/neral/neral E -82.638835527462
  C       2.468271     -0.999707      0.561528
  C       2.525271     -0.182905     -0.699912
  C       1.430201      0.126395     -1.396400
  C       0.030204     -0.234912     -0.988675
  C      -0.589010      0.830697     -0.080696
  C      -1.983389      0.457583      0.344864
  C      -2.146703     -0.453099      1.314840
  C      -3.439968     -0.917228      1.796079
  O      -3.522342     -1.746794      2.686969
  C      -3.145168      1.106766     -0.359175
  C       3.880151      0.247104     -1.176136
  H       3.463078     -1.132318      0.984130
  H       2.060370     -1.990021      0.359077
  H       1.850394     -0.514734      1.316241
  H       1.535989      0.701969     -2.309015
  H       0.007681     -1.207388     -0.497130
  H      -0.584793     -0.326153     -1.887230
  H      -0.600831      1.780593     -0.616695
  H       0.032888      0.977602      0.802527
  H      -1.277747     -0.888792      1.790957
  H      -4.362841     -0.515782      1.367281
  H      -3.778574      0.356452     -0.830139
  H      -3.745286      1.681724      0.344121
  H      -2.805642      1.784755     -1.139005
  H       3.817293      0.882077     -2.057259
  H       4.484805     -0.627662     -1.423328
  H       4.395698      0.803776     -0.391425
27
Coordinates from ORCA-job ./output/neral/neral E -82.640410131960
  C       2.488082     -1.053173      0.507331
  C       2.525667     -0.181152     -0.717418
  C       1.425070      0.170943     -1.372245
  C       0.030968     -0.199570     -0.965979
  C      -0.595497      0.842478     -0.035891
  C      -1.990863      0.463662      0.371674
  C      -2.164641     -0.401679      1.376549
  C      -3.456573     -0.882468      1.840138
  O      -3.570810     -1.682400      2.735880
  C      -3.132422      1.046358     -0.416281
  C       3.879258      0.256352     -1.182629
  H       3.486893     -1.210126      0.905185
  H       2.068961     -2.030664      0.277411
  H       1.886915     -0.608587      1.297153
  H       1.523517      0.797997     -2.251767
  H       0.014665     -1.173897     -0.482135
  H      -0.590890     -0.289810     -1.857174
  H      -0.603129      1.803487     -0.547236
  H       0.023963      0.960872      0.850645
  H      -1.306762     -0.791436      1.910752
  H      -4.363927     -0.529737      1.325184
  H      -3.748067      0.266826     -0.856946
  H      -3.766827      1.661745      0.216162
  H      -2.767823      1.671668     -1.225187
  H       3.813612      0.914189     -2.044179
  H       4.486032     -0.607099     -1.454373
  H       4.404626      0.785220     -0.388232
27
Coordinates from ORCA-job ./output/neral/neral E -82.640483907115
  C       2.518199     -1.146810      0.403564
  C       2.528919     -0.171724     -0.742481
  C       1.419150      0.247403     -1.330366
  C       0.032835     -0.145496     -0.936223
  C      -0.604258      0.850211      0.037148
  C      -2.002290      0.455198      0.404694
  C      -2.203765     -0.333353      1.461816
  C      -3.498789     -0.845983      1.886119
  O      -3.677006     -1.494064      2.876427
  C      -3.098327      0.922259     -0.511546
  C       3.880120      0.288987     -1.183602
  H       3.524348     -1.339964      0.763798
  H       2.087644     -2.102629      0.111346
  H       1.935576     -0.782311      1.246852
  H       1.508399      0.958970     -2.145395
  H       0.025239     -1.131315     -0.475679
  H      -0.596248     -0.222172     -1.823429
  H      -0.605810      1.835839     -0.425679
  H       0.010208      0.915260      0.932298
  H      -1.372728     -0.641044      2.086955
  H      -4.376322     -0.477254      1.316730
  H      -3.685501      0.096962     -0.903962
  H      -3.784912      1.592114      0.000097
  H      -2.684910      1.462550     -1.357293
  H       3.810643      0.998480     -2.003218
  H       4.491110     -0.552317     -1.508938
  H       4.418476      0.762200     -0.363640
27
Coordinates from ORCA-job ./output/neral/neral E -82.642152106086
  C       2.533830     -1.202980      0.341156
  C       2.532110     -0.169062     -0.752916
  C       1.414551      0.285593     -1.303752
  C       0.031676     -0.119598     -0.913142
  C      -0.603817      0.857759      0.080278
  C      -2.005025      0.457787      0.425317
  C      -2.231907     -0.265610      1.523182
  C      -3.538397     -0.766900      1.936435
  O      -3.738217     -1.427628      2.921392
  C      -3.071608      0.850236     -0.557534
  C       3.879591      0.309729     -1.186479
  H       3.545088     -1.413883      0.681067
  H       2.099867     -2.144838      0.005787
  H       1.958525     -0.884259      1.209644
  H       1.497247      1.038298     -2.082059
  H       0.028756     -1.113080     -0.465385
  H      -0.600870     -0.186056     -1.800837
  H      -0.599945      1.856067     -0.359966
  H       0.008121      0.897466      0.980409
  H      -1.419764     -0.520038      2.195810
  H      -4.385397     -0.503437      1.271237
  H      -3.649601     -0.002988     -0.905420
  H      -3.774931      1.557156     -0.120011
  H      -2.629801      1.327018     -1.428935
  H       3.804988      1.052487     -1.977879
  H       4.489205     -0.518688     -1.549871
  H       4.425722      0.749446     -0.351133
27
Coordinates from ORCA-job ./output/neral/neral E -82.642655031266
  C       2.552481     -1.258263      0.274173
  C       2.540490     -0.165455     -0.760776
  C       1.416284      0.317982     -1.277377
  C       0.036432     -0.107907     -0.896239
  C      -0.603980      0.847864      0.115596
  C      -2.008263      0.441451      0.437577
  C      -2.266172     -0.215280      1.571221
  C      -3.586514     -0.694360      1.968200
  O      -3.808779     -1.303777      2.984656
  C      -3.046923      0.775155     -0.595458
  C       3.881841      0.342313     -1.182367
  H       3.566771     -1.478181      0.600994
  H       2.127152     -2.184268     -0.113807
  H       1.975088     -0.990991      1.159197
  H       1.491095      1.111114     -2.015175
  H       0.041762     -1.110121     -0.467392
  H      -0.592721     -0.161551     -1.787597
  H      -0.598595      1.857549     -0.301156
  H       0.001977      0.867738      1.020712
  H      -1.474033     -0.422619      2.281864
  H      -4.410057     -0.481758      1.262338
  H      -3.623244     -0.095520     -0.901481
  H      -3.753048      1.515309     -0.220242
  H      -2.580263      1.192413     -1.485002
  H       3.799269      1.122535     -1.936572
  H       4.491401     -0.465866     -1.590329
  H       4.430546      0.744492     -0.329164
27
Coordinates from ORCA-job ./output/neral/neral E -82.642919558089
  C       2.580608     -1.321220      0.193335
  C       2.554342     -0.163377     -0.767219
  C       1.422599      0.348523     -1.241838
  C       0.045992     -0.103980     -0.875443
  C      -0.608063      0.831663      0.146681
  C      -2.015339      0.421687      0.449629
  C      -2.308464     -0.159160      1.617116
  C      -3.643490     -0.611397      1.996326
  O      -3.890576     -1.146446      3.051174
  C      -3.026129      0.693470     -0.628758
  C       3.886804      0.381560     -1.173281
  H       3.597551     -1.541491      0.512587
  H       2.178241     -2.226801     -0.261509
  H       1.992113     -1.120317      1.088404
  H       1.486430      1.186881     -1.928690
  H       0.063453     -1.112798     -0.463252
  H      -0.572951     -0.150041     -1.774003
  H      -0.604923      1.850143     -0.250698
  H      -0.010165      0.840821      1.057226
  H      -1.536972     -0.317764      2.360731
  H      -4.448177     -0.446967      1.261982
  H      -3.607735     -0.189663     -0.884488
  H      -3.724788      1.470370     -0.318804
  H      -2.536182      1.041153     -1.535453
  H       3.791615      1.205301     -1.877928
  H       4.495651     -0.397219     -1.636213
  H       4.438554      0.737067     -0.301219
27
Coordinates from ORCA-job ./output/neral/neral E -82.642979465029
  C       2.593755     -1.339549      0.173230
  C       2.561436     -0.164588     -0.766058
  C       1.427553      0.353776     -1.227869
  C       0.051632     -0.107526     -0.868824
  C      -0.614215      0.828100      0.144712
  C      -2.021685      0.417853      0.447515
  C      -2.318735     -0.147283      1.621832
  C      -3.655166     -0.592151      2.003888
  O      -3.903431     -1.108094      3.067853
  C      -3.032233      0.680523     -0.633945
  C       3.891118      0.390633     -1.168257
  H       3.610390     -1.551146      0.498974
  H       2.209955     -2.241418     -0.304188
  H       1.993255     -1.162599      1.064967
  H       1.487458      1.204641     -1.899556
  H       0.074085     -1.114659     -0.453400
  H      -0.559274     -0.160800     -1.772219
  H      -0.614853      1.845415     -0.255777
  H      -0.020215      0.845545      1.057714
  H      -1.548052     -0.298273      2.367659
  H      -4.461610     -0.436011      1.269831
  H      -3.619815     -0.202221     -0.875885
  H      -3.723433      1.467086     -0.332132
  H      -2.542789      1.012509     -1.546378
  H       3.790763      1.226350     -1.857645
  H       4.499307     -0.378524     -1.647550
  H       4.444798      0.732408     -0.292097
27
Coordinates from ORCA-job ./output/neral/neral E -82.643069002492
  C       2.628804     -1.392476      0.104626
  C       2.576858     -0.166622     -0.766658
  C       1.436642      0.375369     -1.179596
  C       0.063531     -0.105642     -0.837596
  C      -0.630897      0.828588      0.154442
  C      -2.038995      0.417781      0.451329
  C      -2.351851     -0.100762      1.642409
  C      -3.689885     -0.539034      2.025371
  O      -3.951485     -1.003030      3.108200
  C      -3.035198      0.630170     -0.654812
  C       3.899765      0.410800     -1.160481
  H       3.643123     -1.582154      0.449518
  H       2.298622     -2.278323     -0.438077
  H       1.995312     -1.292054      0.984411
  H       1.485832      1.264195     -1.801612
  H       0.096944     -1.107565     -0.411870
  H      -0.529405     -0.178828     -1.751569
  H      -0.638925      1.843217     -0.253006
  H      -0.048105      0.862598      1.074309
  H      -1.590646     -0.217510      2.404029
  H      -4.491084     -0.418671      1.276851
  H      -3.635748     -0.254536     -0.850434
  H      -3.713183      1.445286     -0.403742
  H      -2.534146      0.901074     -1.580560
  H       3.786038      1.280349     -1.803933
  H       4.501674     -0.330609     -1.688177
  H       4.466407      0.708391     -0.276977
27
Coordinates from ORCA-job ./output/neral/neral E -82.643149617767
  C       2.654865     -1.417370      0.079574
  C       2.588603     -0.170966     -0.761203
  C       1.443386      0.378534     -1.149129
  C       0.071984     -0.112299     -0.813624
  C      -0.644774      0.834380      0.147928
  C      -2.052454      0.420907      0.444875
  C      -2.365241     -0.088933      1.639770
  C      -3.702008     -0.522504      2.030981
  O      -3.959525     -0.975001      3.119913
  C      -3.051578      0.627177     -0.659971
  C       3.905997      0.416472     -1.159903
  H       3.662305     -1.576833      0.458339
  H       2.382687     -2.299003     -0.501157
  H       1.984768     -1.365768      0.935603
  H       1.484635      1.281256     -1.751671
  H       0.111947     -1.105257     -0.368309
  H      -0.506351     -0.211293     -1.734719
  H      -0.659748      1.840262     -0.280965
  H      -0.072296      0.896526      1.072928
  H      -1.602489     -0.199977      2.400787
  H      -4.507880     -0.413062      1.285895
  H      -3.667326     -0.251245     -0.834156
  H      -3.713152      1.458673     -0.418771
  H      -2.553241      0.872379     -1.594221
  H       3.781834      1.300282     -1.781578
  H       4.500766     -0.311929     -1.713104
  H       4.484284      0.694591     -0.277715
27
Coordinates from ORCA-job ./output/neral/neral E -82.643374159349
  C       2.713982     -1.474248      0.008057
  C       2.611000     -0.180359     -0.752999
  C       1.453890      0.388285     -1.071345
  C       0.087069     -0.119516     -0.742915
  C      -0.672480      0.852674      0.154160
  C      -2.080290      0.431740      0.441134
  C      -2.403493     -0.051567      1.644186
  C      -3.739310     -0.481902      2.040609
  O      -4.000653     -0.904186      3.140962
  C      -3.068930      0.605652     -0.678022
  C       3.913719      0.428484     -1.168754
  H       3.691133     -1.568300      0.477836
  H       2.592215     -2.329170     -0.658395
  H       1.961627     -1.550506      0.789405
  H       1.477331      1.323400     -1.624119
  H       0.137407     -1.091553     -0.255236
  H      -0.463793     -0.273579     -1.674061
  H      -0.696696      1.838545     -0.319461
  H      -0.125283      0.969241      1.089358
  H      -1.647565     -0.136830      2.415677
  H      -4.542951     -0.405883      1.288822
  H      -3.722197     -0.254285     -0.796038
  H      -3.692211      1.480059     -0.491167
  H      -2.561230      0.768604     -1.625277
  H       3.765600      1.343154     -1.738472
  H       4.486995     -0.268732     -1.781721
  H       4.525114      0.660777     -0.295831
27
Coordinates from ORCA-job ./output/neral/neral E -82.643761885955
  C       2.783277     -1.529062     -0.064803
  C       2.632289     -0.195408     -0.741421
  C       1.462576      0.389265     -0.976399
  C       0.099750     -0.126196     -0.643761
  C      -0.703225      0.884174      0.165726
  C      -2.111219      0.451920      0.437284
  C      -2.443811     -0.018924      1.642700
  C      -3.776687     -0.455571      2.041287
  O      -4.040284     -0.862935      3.147429
  C      -3.084752      0.599677     -0.696870
  C       3.913872      0.432886     -1.193186
  H       3.685617     -1.547591      0.544702
  H       2.880269     -2.326588     -0.804099
  H       1.941519     -1.768029      0.578504
  H       1.467885      1.351124     -1.482776
  H       0.153937     -1.066067     -0.097655
  H      -0.422554     -0.352037     -1.577990
  H      -0.731262      1.837401     -0.370979
  H      -0.189803      1.070669      1.108808
  H      -1.696631     -0.080790      2.425565
  H      -4.575159     -0.411356      1.281810
  H      -3.792578     -0.222029     -0.753274
  H      -3.650019      1.525052     -0.580460
  H      -2.565472      0.657443     -1.650701
  H       3.737324      1.372664     -1.712115
  H       4.454272     -0.234099     -1.867145
  H       4.570868      0.624405     -0.343786
27
Coordinates from ORCA-job ./output/neral/neral E -82.644116197620
  C       2.808862     -1.540640     -0.062194
  C       2.627880     -0.214301     -0.736963
  C       1.453585      0.375158     -0.945235
  C       0.089475     -0.117033     -0.583740
  C      -0.719434      0.936215      0.165707
  C      -2.123366      0.485257      0.432246
  C      -2.438368     -0.028769      1.624829
  C      -3.758127     -0.503459      2.025915
  O      -4.002362     -0.958473      3.119135
  C      -3.094650      0.646443     -0.698064
  C       3.899690      0.409669     -1.220737
  H       3.611120     -1.483853      0.674458
  H       3.101749     -2.300709     -0.790204
  H       1.914629     -1.891460      0.443361
  H       1.458444      1.331243     -1.462977
  H       0.133180     -1.027292      0.011892
  H      -0.435355     -0.393056     -1.504158
  H      -0.743660      1.855961     -0.426022
  H      -0.222211      1.172393      1.106195
  H      -1.688400     -0.094264      2.405569
  H      -4.556353     -0.459084      1.267591
  H      -3.847666     -0.135910     -0.725114
  H      -3.611823      1.603900     -0.614528
  H      -2.574129      0.643240     -1.654381
  H       3.713601      1.346826     -1.742097
  H       4.423272     -0.262138     -1.903879
  H       4.580417      0.604139     -0.390207
27
Coordinates from ORCA-job ./output/neral/neral E -82.644347603404
  C       2.807372     -1.546060     -0.074426
  C       2.623060     -0.219734     -0.745701
  C       1.449184      0.371397     -0.947822
  C       0.086551     -0.119067     -0.579825
  C      -0.718688      0.938949      0.168982
  C      -2.122445      0.486714      0.436281
  C      -2.438270     -0.022956      1.630565
  C      -3.757207     -0.504507      2.027468
  O      -4.000307     -0.953523      3.122994
  C      -3.088247      0.642752     -0.698823
  C       3.894583      0.413716     -1.219313
  H       3.566841     -1.472508      0.705092
  H       3.164684     -2.286580     -0.793005
  H       1.898676     -1.931943      0.377484
  H       1.455091      1.331547     -1.457926
  H       0.131783     -1.024845      0.022500
  H      -0.443267     -0.398310     -1.496060
  H      -0.742406      1.856607     -0.425316
  H      -0.219202      1.176309      1.107887
  H      -1.689035     -0.084182      2.412000
  H      -4.555355     -0.460996      1.269447
  H      -3.868046     -0.112961     -0.703111
  H      -3.570498      1.620246     -0.646796
  H      -2.567182      0.591928     -1.653375
  H       3.708777      1.355361     -1.732194
  H       4.422546     -0.250136     -1.906561
  H       4.571006      0.602780     -0.384050
27
Coordinates from ORCA-job ./output/neral/neral E -82.644676951336
  C       2.779523     -1.527103     -0.054678
  C       2.602927     -0.222198     -0.764817
  C       1.432106      0.361301     -1.001349
  C       0.069768     -0.122910     -0.623664
  C      -0.705564      0.929029      0.172542
  C      -2.109061      0.479983      0.448890
  C      -2.420389     -0.033984      1.642727
  C      -3.738097     -0.529619      2.030770
  O      -3.973243     -0.984712      3.124009
  C      -3.068036      0.651299     -0.688348
  C       3.881583      0.417882     -1.211417
  H       3.476157     -1.413794      0.777182
  H       3.214650     -2.265758     -0.729229
  H       1.853536     -1.938968      0.334252
  H       1.448093      1.310473     -1.530353
  H       0.116270     -1.036287     -0.034301
  H      -0.487509     -0.371105     -1.530726
  H      -0.726889      1.862096     -0.395618
  H      -0.181836      1.131308      1.105880
  H      -1.666179     -0.101896      2.417637
  H      -4.541399     -0.465895      1.280437
  H      -3.907289     -0.035595     -0.657805
  H      -3.464122      1.667618     -0.686383
  H      -2.555455      0.512524     -1.638449
  H       3.706586      1.355507     -1.734039
  H       4.432292     -0.247186     -1.878635
  H       4.531576      0.617990     -0.358118
27
Coordinates from ORCA-job ./output/neral/neral E -82.644730490221
  C       2.815039     -1.552876     -0.101054
  C       2.611421     -0.228605     -0.764193
  C       1.435109      0.355366     -0.970265
  C       0.074273     -0.140363     -0.602330
  C      -0.717154      0.915084      0.172853
  C      -2.123595      0.474118      0.449915
  C      -2.443804     -0.015275      1.651714
  C      -3.764029     -0.499404      2.045693
  O      -3.998865     -0.927873      3.148965
  C      -3.074470      0.640247     -0.694329
  C       3.878858      0.435904     -1.209113
  H       3.394013     -1.429103      0.815266
  H       3.397631     -2.207036     -0.751204
  H       1.891874     -2.063992      0.147317
  H       1.444003      1.321087     -1.468738
  H       0.124259     -1.043300      0.000568
  H      -0.469338     -0.404249     -1.512583
  H      -0.738526      1.843246     -0.403308
  H      -0.199288      1.130802      1.106429
  H      -1.689447     -0.075061      2.426772
  H      -4.572988     -0.442841      1.300751
  H      -3.979706      0.050627     -0.605877
  H      -3.357018      1.690572     -0.775535
  H      -2.589629      0.372301     -1.630798
  H       3.688995      1.389181     -1.696203
  H       4.424488     -0.201607     -1.906236
  H       4.537893      0.613050     -0.358083
27
Coordinates from ORCA-job ./output/neral/neral E -82.644921763708
  C       2.782320     -1.503813     -0.015462
  C       2.595865     -0.222999     -0.764495
  C       1.423273      0.341909     -1.037386
  C       0.058747     -0.140235     -0.666067
  C      -0.702541      0.904427      0.156095
  C      -2.109137      0.472616      0.447256
  C      -2.407778     -0.064060      1.634354
  C      -3.723374     -0.554924      2.035790
  O      -3.937589     -1.039389      3.120434
  C      -3.080015      0.694692     -0.669665
  C       3.873601      0.419161     -1.211933
  H       3.381152     -1.333071      0.880316
  H       3.334209     -2.217761     -0.628430
  H       1.851245     -1.972788      0.284824
  H       1.442217      1.276704     -1.591004
  H       0.101549     -1.062180     -0.091036
  H      -0.504674     -0.364818     -1.574454
  H      -0.719138      1.849391     -0.391966
  H      -0.162627      1.083034      1.085029
  H      -1.636886     -0.163267      2.388976
  H      -4.546319     -0.457472      1.310861
  H      -3.998374      0.125506     -0.578326
  H      -3.337978      1.753405     -0.715596
  H      -2.621830      0.441460     -1.623802
  H       3.695900      1.346094     -1.752078
  H       4.436955     -0.252759     -1.861047
  H       4.511227      0.641138     -0.354791
27
Coordinates from ORCA-job ./output/neral/neral E -82.645082945842
  C       2.750883     -1.438717      0.081515
  C       2.578449     -0.216097     -0.763356
  C       1.410278      0.317768     -1.109630
  C       0.041057     -0.148360     -0.738260
  C      -0.684993      0.879334      0.136232
  C      -2.093699      0.465518      0.442549
  C      -2.371642     -0.126855      1.608059
  C      -3.683279     -0.614829      2.024747
  O      -3.874476     -1.163314      3.083424
  C      -3.085509      0.763767     -0.636042
  C       3.865200      0.402429     -1.217724
  H       3.343016     -1.204751      0.967466
  H       3.301314     -2.202242     -0.470108
  H       1.813667     -1.876554      0.409983
  H       1.439041      1.213508     -1.723998
  H       0.070836     -1.094190     -0.201933
  H      -0.539060     -0.323306     -1.647028
  H      -0.691176      1.844775     -0.375412
  H      -0.122371      1.010851      1.059777
  H      -1.581562     -0.279119      2.333872
  H      -4.524911     -0.464592      1.331108
  H      -4.038923      0.261670     -0.515746
  H      -3.267751      1.838815     -0.666164
  H      -2.679966      0.486728     -1.607966
  H       3.697500      1.294450     -1.817123
  H       4.446205     -0.305100     -1.811184
  H       4.481873      0.678413     -0.360664
27
Coordinates from ORCA-job ./output/neral/neral E -82.645167874686
  C       2.715901     -1.366896      0.167919
  C       2.564025     -0.203132     -0.761390
  C       1.402721      0.298325     -1.172424
  C       0.028036     -0.154892     -0.805635
  C      -0.664233      0.844943      0.124716
  C      -2.076501      0.451165      0.440130
  C      -2.344733     -0.187239      1.583431
  C      -3.656189     -0.663066      2.012443
  O      -3.835199     -1.256669      3.048934
  C      -3.082753      0.816978     -0.602809
  C       3.860252      0.386951     -1.226175
  H       3.323804     -1.084685      1.028583
  H       3.238319     -2.184646     -0.331195
  H       1.770757     -1.750825      0.539031
  H       1.440610      1.155865     -1.838648
  H       0.042020     -1.128812     -0.321000
  H      -0.562462     -0.272421     -1.716949
  H      -0.656982      1.833241     -0.341620
  H      -0.083948      0.922421      1.043649
  H      -1.542488     -0.389719      2.283570
  H      -4.511388     -0.465197      1.347854
  H      -4.061029      0.374413     -0.452721
  H      -3.198015      1.901533     -0.620973
  H      -2.727325      0.522342     -1.589551
  H       3.703727      1.239297     -1.883734
  H       4.452995     -0.355617     -1.762842
  H       4.460075      0.716341     -0.376199
27
Coordinates from ORCA-job ./output/neral/neral E -82.645189037136
  C       2.702031     -1.344002      0.189301
  C       2.559434     -0.198439     -0.763162
  C       1.400781      0.294527     -1.190690
  C       0.024210     -0.154103     -0.822012
  C      -0.656591      0.835745      0.126694
  C      -2.070211      0.446024      0.441699
  C      -2.338169     -0.205696      1.577593
  C      -3.650396     -0.678687      2.007578
  O      -3.827332     -1.280753      3.039437
  C      -3.077633      0.830009     -0.593201
  C       3.859193      0.381335     -1.230715
  H       3.302925     -1.044733      1.049213
  H       3.228397     -2.171773     -0.288893
  H       1.753161     -1.718944      0.560279
  H       1.441124      1.140254     -1.871592
  H       0.033301     -1.136979     -0.354952
  H      -0.570287     -0.253807     -1.732659
  H      -0.644613      1.830675     -0.324961
  H      -0.072532      0.895812      1.044470
  H      -1.534839     -0.421927      2.272393
  H      -4.507891     -0.468832      1.349746
  H      -4.064885      0.413256     -0.429826
  H      -3.166068      1.916942     -0.618601
  H      -2.739454      0.519553     -1.581166
  H       3.707700      1.218722     -1.908287
  H       4.455026     -0.373144     -1.746987
  H       4.453616      0.728964     -0.384304
27
Coordinates from ORCA-job ./output/neral/neral E -82.645200313614
  C       2.692564     -1.333401      0.194925
  C       2.558031     -0.194364     -0.766434
  C       1.401144      0.297250     -1.199781
  C       0.023385     -0.150069     -0.830203
  C      -0.650746      0.829292      0.133149
  C      -2.065815      0.441704      0.445119
  C      -2.337252     -0.212597      1.578623
  C      -3.651668     -0.682003      2.006505
  O      -3.830919     -1.280340      3.039927
  C      -3.071958      0.829008     -0.590124
  C       3.860272      0.379353     -1.233548
  H       3.291436     -1.029147      1.054564
  H       3.218267     -2.166622     -0.274396
  H       1.740676     -1.700881      0.565248
  H       1.442081      1.139133     -1.885293
  H       0.030383     -1.140208     -0.378536
  H      -0.573044     -0.236521     -1.740809
  H      -0.635606      1.829823     -0.305654
  H      -0.065683      0.875670      1.050985
  H      -1.536351     -0.433830      2.274619
  H      -4.507986     -0.470718      1.347498
  H      -4.062691      0.423389     -0.419992
  H      -3.150090      1.916315     -0.624659
  H      -2.739992      0.506904     -1.576366
  H       3.712807      1.206435     -1.924461
  H       4.458761     -0.382618     -1.735523
  H       4.449992      0.739041     -0.388988
27
Coordinates from ORCA-job ./output/neral/neral E -82.645202348329
  C       2.688645     -1.329361      0.197766
  C       2.556444     -0.193742     -0.768020
  C       1.400488      0.297302     -1.204831
  C       0.022056     -0.148514     -0.835641
  C      -0.648360      0.826616      0.134693
  C      -2.063804      0.440049      0.446383
  C      -2.335838     -0.215092      1.579251
  C      -3.650863     -0.683761      2.006815
  O      -3.830235     -1.281730      3.040373
  C      -3.069512      0.829587     -0.588487
  C       3.859689      0.378486     -1.233705
  H       3.283376     -1.021134      1.058904
  H       3.218021     -2.163208     -0.266185
  H       1.735876     -1.697228      0.565252
  H       1.442795      1.137272     -1.892549
  H       0.027553     -1.141271     -0.389852
  H      -0.575938     -0.228340     -1.745746
  H      -0.631638      1.829622     -0.298358
  H      -0.061917      0.866468      1.051906
  H      -1.535486     -0.438149      2.275252
  H      -4.506905     -0.471966      1.347690
  H      -4.061920      0.429433     -0.415584
  H      -3.142579      1.917086     -0.626681
  H      -2.740779      0.502526     -1.574135
  H       3.714156      1.200725     -1.930767
  H       4.461047     -0.386148     -1.728137
  H       4.445627      0.744469     -0.389212
27
Coordinates from ORCA-job ./output/neral/neral E -82.645203527126
  C       2.685725     -1.329135      0.196877
  C       2.555600     -0.193318     -0.769003
  C       1.400675      0.298665     -1.207550
  C       0.021620     -0.146697     -0.840331
  C      -0.647169      0.824770      0.134866
  C      -2.062658      0.438773      0.447013
  C      -2.334888     -0.214388      1.580947
  C      -3.650193     -0.682078      2.009181
  O      -3.829577     -1.277719      3.044085
  C      -3.068616      0.827084     -0.588190
  C       3.859922      0.378728     -1.231840
  H       3.276643     -1.020361      1.060454
  H       3.218315     -2.161973     -0.265179
  H       1.732041     -1.698615      0.560484
  H       1.444536      1.138730     -1.895011
  H       0.026231     -1.141430     -0.398828
  H      -0.576699     -0.221520     -1.750563
  H      -0.629887      1.829677     -0.293803
  H      -0.059616      0.860245      1.051548
  H      -1.534884     -0.436907      2.277487
  H      -4.506109     -0.472080      1.349367
  H      -4.061164      0.427922     -0.413655
  H      -3.141176      1.914497     -0.628871
  H      -2.741151      0.497369     -1.573351
  H       3.716256      1.198362     -1.932338
  H       4.464142     -0.386958     -1.721121
  H       4.442082      0.748355     -0.386282
27
Coordinates from ORCA-job ./output/neral/neral E -82.645204049995
  C       2.683461     -1.328336      0.197741
  C       2.554762     -0.193313     -0.769204
  C       1.400654      0.298581     -1.210030
  C       0.021028     -0.146010     -0.844194
  C      -0.646556      0.823894      0.133453
  C      -2.061851      0.438224      0.446691
  C      -2.333178     -0.214811      1.580927
  C      -3.648198     -0.681968      2.010667
  O      -3.826696     -1.277778      3.045657
  C      -3.068845      0.826892     -0.587342
  C       3.859958      0.378435     -1.230074
  H       3.271659     -1.018427      1.062785
  H       3.218201     -2.160894     -0.262342
  H       1.729221     -1.698713      0.559009
  H       1.445986      1.138048     -1.898126
  H       0.024581     -1.141711     -0.404827
  H      -0.577460     -0.217844     -1.754545
  H      -0.629124      1.829669     -0.293241
  H      -0.057967      0.857260      1.049576
  H      -1.532634     -0.437622      2.276770
  H      -4.504764     -0.471769      1.351771
  H      -4.061054      0.427133     -0.412077
  H      -3.142051      1.914304     -0.627137
  H      -2.742429      0.497884     -1.573101
  H       3.717652      1.196395     -1.932816
  H       4.466101     -0.387953     -1.715838
  H       4.439542      0.750429     -0.383757
