27
Coordinates from ORCA-job ./output/neral/neral E -82.645204049995
  C           2.68346112830309     -1.32833553478160      0.19774100150811
  C           2.55476199279091     -0.19331302400350     -0.76920421746077
  C           1.40065355779456      0.29858120795109     -1.21002958295506
  C           0.02102837625488     -0.14601017469829     -0.84419397466022
  C          -0.64655649782517      0.82389376615034      0.13345324194396
  C          -2.06185108778474      0.43822375703799      0.44669121035507
  C          -2.33317774522243     -0.21481112445704      1.58092699997150
  C          -3.64819771824818     -0.68196824802365      2.01066679638569
  O          -3.82669578095001     -1.27777826811071      3.04565716943431
  C          -3.06884450821753      0.82689234831661     -0.58734248336882
  C           3.85995784978593      0.37843546935125     -1.23007427038101
  H           3.27165936937496     -1.01842740846463      1.06278476931144
  H           3.21820092353902     -2.16089414232987     -0.26234173832322
  H           1.72922107639335     -1.69871281979018      0.55900868867392
  H           1.44598639368710      1.13804788021003     -1.89812568673868
  H           0.02458063255603     -1.14171114138694     -0.40482668654365
  H          -0.57746030649956     -0.21784415848580     -1.75454499040131
  H          -0.62912429629901      1.82966945378189     -0.29324068955214
  H          -0.05796743041167      0.85726032568107      1.04957563378665
  H          -1.53263399455532     -0.43762226527489      2.27676990947106
  H          -4.50476382751454     -0.47176944006799      1.35177068727276
  H          -4.06105405002111      0.42713284032735     -0.41207744717310
  H          -3.14205054389308      1.91430421169223     -0.62713656336070
  H          -2.74242893139513      0.49788432618041     -1.57310107219279
  H           3.71765158345396      1.19639487242753     -1.93281607411690
  H           4.46610114594163     -0.38795262366533     -1.71583840874441
  H           4.43954168896209      0.75042891443262     -0.38375722214170
