19
Coordinates from ORCA-job ./output/methyl_anisole/methyl_anisole E -67.642142287542
  C           2.69849384266587     -0.18079038556216     -0.48254111622883
  C           2.05358695281954      0.69743692550875      0.56200814231345
  O           0.85077742834635      1.28445616583646      0.10695036824376
  C          -0.28680956870339      0.55212882330375      0.06606454467452
  C          -0.41062776913675     -0.74585595019950      0.53958356996568
  C          -1.63778344856406     -1.38856971638219      0.46071227673966
  C          -2.73883350463811     -0.75925828521669     -0.08365349966835
  C          -2.60535685393706      0.53858722357350     -0.55664141181116
  C          -1.39356533494561      1.19016878299927     -0.48494504929221
  H           2.06495096613462     -1.02316405634472     -0.75192203322879
  H           3.64365302620489     -0.57027115180997     -0.10610602157464
  H           2.89848969321931      0.39478254085822     -1.38454125816610
  H           2.69961072518454      1.54112415424268      0.79602489670067
  H           1.87899260851752      0.15805350092051      1.49484382829371
  H           0.43036919721224     -1.26869354712404      0.96693775672023
  H          -1.72300732288601     -2.40048916721221      0.83282837826064
  H          -3.68936266796081     -1.26975339378131     -0.14142728292369
  H          -3.45652604339625      1.04877817154685     -0.98656342828537
  H          -1.27705092613681      2.20132936484281     -0.84761166073319
