25
Coordinates from ORCA-job ./output/ethyl_cinnamate/ethyl_cinnamate E -101.978380176874
  C      -4.423020     -0.985591      1.039123
  C      -3.899914      0.416698      0.750486
  O      -2.502439      0.384265      0.467507
  C      -1.971122     -0.057727     -0.751228
  O      -2.734290     -0.407688     -1.691931
  C      -0.514901     -0.114365     -0.953477
  C       0.347847      0.263299     -0.000328
  C       1.822440      0.233062     -0.163561
  C       2.464822     -0.586590     -1.115150
  C       3.859472     -0.586789     -1.220946
  C       4.627772      0.219089     -0.378327
  C       4.003710      1.022686      0.577707
  C       2.609987      1.026676      0.688865
  H      -4.313539     -1.632110      0.143619
  H      -5.498035     -0.934060      1.312107
  H      -3.858149     -1.434059      1.883582
  H      -4.457137      0.870249     -0.097916
  H      -4.063928      1.049777      1.647800
  H      -0.160477     -0.451581     -1.917762
  H      -0.040364      0.653379      0.933589
  H       1.903731     -1.245700     -1.762438
  H       4.345570     -1.218817     -1.953020
  H       5.706893      0.215846     -0.461885
  H       4.600133      1.642716      1.234524
  H       2.144936      1.657334      1.436975
25
Coordinates from ORCA-job ./output/ethyl_cinnamate/ethyl_cinnamate E -101.995383201343
  C      -4.330820     -0.978828      1.022677
  C      -3.806276      0.406301      0.711640
  O      -2.414971      0.386178      0.454262
  C      -1.987374     -0.053905     -0.741224
  O      -2.764342     -0.382125     -1.616791
  C      -0.544644     -0.110606     -0.941372
  C       0.323236      0.260456      0.000371
  C       1.783888      0.225257     -0.152441
  C       2.417683     -0.577680     -1.099736
  C       3.798004     -0.576700     -1.208382
  C       4.564584      0.218953     -0.369768
  C       3.945528      1.009454      0.584352
  C       2.564380      1.006950      0.695649
  H      -4.210704     -1.635383      0.162724
  H      -5.390681     -0.922234      1.272241
  H      -3.793699     -1.401709      1.871685
  H      -4.334287      0.838828     -0.139613
  H      -3.944136      1.057583      1.572293
  H      -0.217810     -0.452438     -1.909575
  H      -0.060241      0.642978      0.937767
  H       1.848443     -1.228403     -1.747472
  H       4.279289     -1.204531     -1.944847
  H       5.642248      0.216352     -0.455430
  H       4.539215      1.626329      1.244142
  H       2.093486      1.628923      1.444766
25
Coordinates from ORCA-job ./output/ethyl_cinnamate/ethyl_cinnamate E -101.996903216541
  C      -4.306566     -0.963227      1.065637
  C      -3.783260      0.399962      0.683351
  O      -2.386976      0.378961      0.417773
  C      -2.003864     -0.060194     -0.777355
  O      -2.780483     -0.379912     -1.639646
  C      -0.551331     -0.111839     -0.961641
  C       0.316211      0.244735     -0.018361
  C       1.774496      0.210209     -0.152337
  C       2.417418     -0.562188     -1.112801
  C       3.794025     -0.551018     -1.214695
  C       4.551812      0.228382     -0.356459
  C       3.923724      0.990766      0.610750
  C       2.545453      0.974733      0.714558
  H      -4.199584     -1.661619      0.241074
  H      -5.361536     -0.890362      1.321088
  H      -3.767884     -1.347076      1.929437
  H      -4.309485      0.792889     -0.183399
  H      -3.897587      1.097758      1.508007
  H      -0.233181     -0.448531     -1.936067
  H      -0.071358      0.609801      0.924046
  H       1.848524     -1.196053     -1.777602
  H       4.281118     -1.159824     -1.963571
  H       5.629926      0.233658     -0.436960
  H       4.508867      1.596393      1.288577
  H       2.061519      1.573598      1.474509
25
Coordinates from ORCA-job ./output/ethyl_cinnamate/ethyl_cinnamate E -101.997137938435
  C      -4.319895     -0.948659      1.079864
  C      -3.787515      0.403239      0.679815
  O      -2.386053      0.364315      0.414561
  C      -2.008284     -0.078302     -0.785320
  O      -2.782453     -0.418832     -1.642086
  C      -0.548451     -0.123881     -0.964047
  C       0.320796      0.234154     -0.024755
  C       1.779132      0.204955     -0.155035
  C       2.427954     -0.551025     -1.125369
  C       3.804393     -0.532618     -1.225205
  C       4.557893      0.238757     -0.355528
  C       3.924729      0.984768      0.621440
  C       2.546395      0.960969      0.722855
  H      -4.221810     -1.660011      0.263979
  H      -5.374356     -0.862452      1.335131
  H      -3.785694     -1.327910      1.948853
  H      -4.305317      0.787354     -0.195657
  H      -3.890673      1.117777      1.492360
  H      -0.235285     -0.463844     -1.940068
  H      -0.066933      0.597007      0.918655
  H       1.858957     -1.176044     -1.798576
  H       4.294782     -1.129269     -1.981799
  H       5.636047      0.250150     -0.434871
  H       4.505615      1.584001      1.308608
  H       2.056027      1.545402      1.490111
25
Coordinates from ORCA-job ./output/ethyl_cinnamate/ethyl_cinnamate E -101.997029665191
  C      -4.350632     -0.912291      1.112343
  C      -3.794351      0.411002      0.660388
  O      -2.385944      0.332419      0.410540
  C      -2.006339     -0.143826     -0.780459
  O      -2.776980     -0.467951     -1.647149
  C      -0.540964     -0.162648     -0.961402
  C       0.329932      0.196957     -0.025997
  C       1.788311      0.190148     -0.158716
  C       2.447397     -0.525290     -1.154424
  C       3.823547     -0.486151     -1.254195
  C       4.568142      0.266266     -0.359530
  C       3.925887      0.971633      0.642152
  C       2.547608      0.927074      0.743059
  H      -4.261009     -1.659914      0.327189
  H      -5.406263     -0.797085      1.355500
  H      -3.831177     -1.266243      2.001450
  H      -4.291604      0.763141     -0.240768
  H      -3.887870      1.166681      1.436966
  H      -0.234358     -0.492532     -1.943949
  H      -0.058016      0.544620      0.923445
  H       1.881575     -1.132806     -1.846182
  H       4.320638     -1.051176     -2.030512
  H       5.645937      0.294513     -0.439454
  H       4.499028      1.555657      1.348686
  H       2.047502      1.477801      1.528932
25
Coordinates from ORCA-job ./output/ethyl_cinnamate/ethyl_cinnamate E -101.997213880678
  C      -4.326528     -0.930719      1.108821
  C      -3.798933      0.407042      0.662975
  O      -2.391771      0.358061      0.405346
  C      -2.009624     -0.102533     -0.789647
  O      -2.780526     -0.453271     -1.645390
  C      -0.546335     -0.139074     -0.967019
  C       0.324601      0.223488     -0.032332
  C       1.783331      0.201819     -0.161292
  C       2.438225     -0.529076     -1.148658
  C       3.815198     -0.505511     -1.243361
  C       4.564356      0.245994     -0.351673
  C       3.926104      0.966713      0.641581
  C       2.546925      0.938181      0.737446
  H      -4.225708     -1.670289      0.317828
  H      -5.383000     -0.839189      1.358589
  H      -3.794619     -1.280237      1.992252
  H      -4.308217      0.754932     -0.233362
  H      -3.904822      1.154913      1.445169
  H      -0.239668     -0.483196     -1.944319
  H      -0.063169      0.586901      0.911301
  H       1.869011     -1.136387     -1.837733
  H       4.309262     -1.081944     -2.013144
  H       5.642689      0.261910     -0.427556
  H       4.502990      1.550238      1.345452
  H       2.050223      1.501232      1.516640
25
Coordinates from ORCA-job ./output/ethyl_cinnamate/ethyl_cinnamate E -101.997224235095
  C      -4.322896     -0.927773      1.113565
  C      -3.798657      0.408579      0.659319
  O      -2.391794      0.360053      0.402214
  C      -2.009104     -0.105827     -0.789873
  O      -2.780031     -0.461930     -1.643570
  C      -0.547100     -0.142548     -0.968425
  C       0.323561      0.224563     -0.035063
  C       1.782290      0.202508     -0.162985
  C       2.437713     -0.523579     -1.153428
  C       3.814677     -0.500679     -1.246142
  C       4.563207      0.245323     -0.349373
  C       3.924424      0.961562      0.646528
  C       2.545131      0.933829      0.740346
  H      -4.220272     -1.671422      0.326733
  H      -5.379304     -0.838039      1.363252
  H      -3.789537     -1.270783      1.998471
  H      -4.308244      0.748865     -0.239354
  H      -3.906499      1.161288      1.436352
  H      -0.241384     -0.491228     -1.944236
  H      -0.064749      0.591555      0.906904
  H       1.868836     -1.126183     -1.846832
  H       4.309356     -1.073181     -2.018442
  H       5.641661      0.260534     -0.423653
  H       4.500911      1.540894      1.354169
  H       2.047803      1.493617      1.521436
25
Coordinates from ORCA-job ./output/ethyl_cinnamate/ethyl_cinnamate E -101.997237867675
  C      -4.316342     -0.915191      1.132830
  C      -3.800105      0.413087      0.646803
  O      -2.393028      0.363333      0.390957
  C      -2.008866     -0.120170     -0.792861
  O      -2.779384     -0.492377     -1.640476
  C      -0.548462     -0.156608     -0.973601
  C       0.321884      0.223692     -0.044981
  C       1.780835      0.202861     -0.169317
  C       2.439955     -0.504283     -1.171123
  C       3.817026     -0.481024     -1.257136
  C       4.562199      0.246336     -0.342315
  C       3.920036      0.944172      0.663990
  C       2.540235      0.916573      0.750746
  H      -4.210156     -1.675204      0.362360
  H      -5.372826     -0.827374      1.382338
  H      -3.779230     -1.235444      2.023804
  H      -4.310179      0.727353     -0.260718
  H      -3.911645      1.184512      1.404454
  H      -0.246083     -0.518791     -1.945275
  H      -0.068139      0.600926      0.892182
  H       1.873119     -1.091035     -1.879487
  H       4.314789     -1.038140     -2.038621
  H       5.640991      0.261532     -0.411463
  H       4.493938      1.509088      1.385242
  H       2.039436      1.462176      1.539583
25
Coordinates from ORCA-job ./output/ethyl_cinnamate/ethyl_cinnamate E -101.997242184615
  C      -4.314837     -0.907231      1.142831
  C      -3.800454      0.415791      0.640721
  O      -2.393425      0.364031      0.384913
  C      -2.009242     -0.130354     -0.794289
  O      -2.779782     -0.511307     -1.638116
  C      -0.548853     -0.166888     -0.975974
  C       0.321386      0.222142     -0.050819
  C       1.780449      0.202697     -0.173104
  C       2.442162     -0.493061     -1.181286
  C       3.819338     -0.468947     -1.263498
  C       4.562304      0.248049     -0.338628
  C       3.917727      0.934931      0.673526
  C       2.537629      0.906652      0.756239
  H      -4.207975     -1.675832      0.380946
  H      -5.371271     -0.818392      1.392190
  H      -3.776391     -1.216483      2.036903
  H      -4.311161      0.718170     -0.270490
  H      -3.912382      1.196380      1.388881
  H      -0.247799     -0.537869     -1.944714
  H      -0.069654      0.605852      0.883254
  H       1.877267     -1.070956     -1.898381
  H       4.319129     -1.016914     -2.050144
  H       5.641266      0.263942     -0.405011
  H       4.489809      1.491905      1.402355
  H       2.034758      1.443693      1.549612
25
Coordinates from ORCA-job ./output/ethyl_cinnamate/ethyl_cinnamate E -101.997247120469
  C      -4.314232     -0.894656      1.156160
  C      -3.800191      0.420254      0.632633
  O      -2.393508      0.364584      0.376318
  C      -2.010039     -0.147945     -0.795435
  O      -2.780945     -0.542744     -1.632525
  C      -0.549241     -0.185391     -0.978211
  C       0.320879      0.219767     -0.059881
  C       1.780059      0.202785     -0.179212
  C       2.445898     -0.475174     -1.196912
  C       3.823279     -0.449662     -1.273344
  C       4.562875      0.251286     -0.333345
  C       3.914364      0.921172      0.687561
  C       2.533825      0.891713      0.763993
  H      -4.207256     -1.675103      0.406342
  H      -5.370577     -0.802431      1.404747
  H      -3.774880     -1.189468      2.054638
  H      -4.312249      0.708121     -0.282651
  H      -3.911412      1.212652      1.368500
  H      -0.249505     -0.572549     -1.940993
  H      -0.071667      0.615614      0.868447
  H       1.884709     -1.039282     -1.927697
  H       4.326203     -0.983399     -2.067774
  H       5.642095      0.268401     -0.395546
  H       4.483520      1.465973      1.427801
  H       2.027992      1.415483      1.564301
25
Coordinates from ORCA-job ./output/ethyl_cinnamate/ethyl_cinnamate E -101.997249089182
  C      -4.314800     -0.890160      1.159587
  C      -3.799644      0.422120      0.630431
  O      -2.393284      0.365067      0.373496
  C      -2.010489     -0.155618     -0.795076
  O      -2.781788     -0.555999     -1.629025
  C      -0.549420     -0.194311     -0.977776
  C       0.320685      0.219797     -0.063434
  C       1.779979      0.203481     -0.181731
  C       2.447317     -0.467775     -1.202977
  C       3.824814     -0.442151     -1.277133
  C       4.563342      0.252379     -0.331492
  C       3.913444      0.916045      0.692581
  C       2.532725      0.886595      0.766562
  H      -4.208173     -1.674169      0.413452
  H      -5.371157     -0.795673      1.407369
  H      -3.775967     -1.181155      2.059664
  H      -4.312536      0.707176     -0.285356
  H      -3.910070      1.217285      1.363492
  H      -0.249548     -0.590529     -1.936824
  H      -0.072330      0.622858      0.861635
  H       1.887885     -1.026230     -1.939433
  H       4.328730     -0.970492     -2.074501
  H       5.642617      0.269674     -0.392104
  H       4.481582      1.456119      1.437034
  H       2.026082      1.405667      1.569473
25
Coordinates from ORCA-job ./output/ethyl_cinnamate/ethyl_cinnamate E -101.997249853853
  C      -4.315560     -0.886753      1.161474
  C      -3.799294      0.423607      0.628619
  O      -2.393061      0.365705      0.371695
  C      -2.010584     -0.162225     -0.793900
  O      -2.782130     -0.567631     -1.625103
  C      -0.549426     -0.202095     -0.976161
  C       0.320717      0.220597     -0.065828
  C       1.779975      0.204714     -0.183740
  C       2.448124     -0.461166     -1.207962
  C       3.825725     -0.435905     -1.280532
  C       4.563771      0.252991     -0.330342
  C       3.913040      0.911729      0.696393
  C       2.532210      0.882768      0.768529
  H      -4.208987     -1.673522      0.418283
  H      -5.372064     -0.790189      1.407890
  H      -3.777942     -1.174974      2.063173
  H      -4.312371      0.706963     -0.287636
  H      -3.909427      1.220591      1.359766
  H      -0.249219     -0.606862     -1.931536
  H      -0.072359      0.630545      0.856137
  H       1.889842     -1.014693     -1.948960
  H       4.330099     -0.959983     -2.080455
  H       5.643139      0.270021     -0.389749
  H       4.480581      1.447682      1.444283
  H       2.025197      1.398086      1.573576
25
Coordinates from ORCA-job ./output/ethyl_cinnamate/ethyl_cinnamate E -101.997250002195
  C      -4.316046     -0.888343      1.159437
  C      -3.799358      0.423103      0.629750
  O      -2.393017      0.365633      0.372976
  C      -2.010401     -0.160499     -0.793434
  O      -2.781910     -0.564190     -1.625483
  C      -0.549359     -0.200620     -0.975304
  C       0.320852      0.221216     -0.064629
  C       1.780129      0.204898     -0.183019
  C       2.447707     -0.463050     -1.206267
  C       3.825285     -0.438086     -1.279554
  C       4.563846      0.252588     -0.331099
  C       3.913685      0.913371      0.694687
  C       2.532908      0.884673      0.767632
  H      -4.209707     -1.673557      0.414603
  H      -5.372577     -0.791789      1.405762
  H      -3.778904     -1.178772      2.060701
  H      -4.312082      0.708831     -0.285946
  H      -3.909496      1.218344      1.362785
  H      -0.248874     -0.604498     -1.930952
  H      -0.071904      0.630785      0.857677
  H       1.888937     -1.018000     -1.945836
  H       4.329150     -0.963807     -2.078702
  H       5.643171      0.269400     -0.391046
  H       4.481639      1.450721      1.441257
  H       2.026325      1.401647      1.571917
