25
Coordinates from ORCA-job ./output/ethyl_cinnamate/ethyl_cinnamate E -101.997250002195
  C          -4.31604569896172     -0.88834343553594      1.15943721641008
  C          -3.79935779250906      0.42310293245469      0.62975033664242
  O          -2.39301689717462      0.36563330810116      0.37297570093670
  C          -2.01040141142053     -0.16049905924304     -0.79343439563660
  O          -2.78190973482547     -0.56418953177585     -1.62548257337884
  C          -0.54935929783223     -0.20061992977177     -0.97530384852212
  C           0.32085185123042      0.22121596873206     -0.06462938931298
  C           1.78012921717784      0.20489788727673     -0.18301925162023
  C           2.44770657768471     -0.46304999654221     -1.20626681711872
  C           3.82528488001009     -0.43808634487573     -1.27955366659646
  C           4.56384573776221      0.25258791830706     -0.33109895887141
  C           3.91368505753965      0.91337143723047      0.69468663402759
  C           2.53290776698032      0.88467269492730      0.76763247483420
  H          -4.20970717153357     -1.67355678088395      0.41460320475530
  H          -5.37257659029886     -0.79178925798369      1.40576219648321
  H          -3.77890427974510     -1.17877160358693      2.06070144650146
  H          -4.31208174889278      0.70883111896646     -0.28594627650198
  H          -3.90949630493874      1.21834382540776      1.36278462454753
  H          -0.24887414510022     -0.60449783210169     -1.93095152957191
  H          -0.07190400227141      0.63078476691826      0.85767735297693
  H           1.88893740261041     -1.01799952286829     -1.94583580543442
  H           4.32914962006663     -0.96380717454687     -2.07870182623147
  H           5.64317061918810      0.26940010290263     -0.39104579787746
  H           4.48163895791883      1.45072062707796      1.44125671325759
  H           2.02632538733513      1.40164688141345      1.57191723530161
