29
Coordinates from ORCA-job ./output/butyl_anthranilate/butyl_anthranilate E -113.777001678967
  C       4.559346      0.477677     -0.071440
  C       3.879857     -0.384748      0.991773
  C       2.347348     -0.301770      0.930525
  C       1.767089     -1.001728     -0.304956
  O       0.343313     -1.041147     -0.231002
  C      -0.472449      0.074504     -0.458300
  O       0.036666      1.166132     -0.833150
  C      -1.939619     -0.058064     -0.320009
  C      -2.528839     -1.294543     -0.641099
  C      -3.914849     -1.456173     -0.599606
  C      -4.732537     -0.387917     -0.235528
  C      -4.166026      0.840521      0.106874
  C      -2.772867      1.017346      0.086963
  N      -2.233633      2.267596      0.537822
  H       4.203526      1.527878     -0.005944
  H       4.356858      0.081013     -1.087733
  H       5.657669      0.466359      0.091353
  H       4.211411     -1.440330      0.883588
  H       4.210804     -0.029728      1.991808
  H       1.935174     -0.793728      1.838330
  H       2.027518      0.762334      0.952060
  H       2.140553     -2.047041     -0.343593
  H       2.080374     -0.488256     -1.239000
  H      -1.916799     -2.132766     -0.951390
  H      -4.356024     -2.409760     -0.859749
  H      -5.807160     -0.514555     -0.208106
  H      -4.814277      1.652695      0.411552
  H      -1.237492      2.368248      0.828811
  H      -2.864935      3.079949      0.718330
29
Coordinates from ORCA-job ./output/butyl_anthranilate/butyl_anthranilate E -113.802631284270
  C       4.495783      0.472648     -0.080410
  C       3.815954     -0.396083      0.971597
  C       2.292611     -0.308945      0.937609
  C       1.695576     -0.970350     -0.291557
  O       0.282145     -1.023348     -0.212632
  C      -0.427632      0.099025     -0.433643
  O       0.122612      1.133876     -0.763547
  C      -1.884231     -0.037217     -0.304837
  C      -2.456494     -1.269473     -0.620295
  C      -3.826041     -1.449767     -0.589074
  C      -4.644945     -0.390827     -0.227728
  C      -4.095564      0.831014      0.113863
  C      -2.715374      1.025407      0.092216
  N      -2.217757      2.248102      0.499818
  H       4.157535      1.507989     -0.000952
  H       4.286552      0.111061     -1.088802
  H       5.578888      0.455001      0.061446
  H       4.131575     -1.437339      0.845801
  H       4.156346     -0.076004      1.960617
  H       1.888537     -0.808963      1.823614
  H       1.981082      0.737698      0.979285
  H       2.039346     -2.003081     -0.360338
  H       1.988786     -0.446724     -1.204398
  H      -1.825380     -2.094047     -0.917463
  H      -4.254173     -2.407469     -0.848483
  H      -5.717643     -0.522300     -0.201363
  H      -4.746225      1.640132      0.414547
  H      -1.257046      2.376225      0.740263
  H      -2.844821      3.003757      0.684030
29
Coordinates from ORCA-job ./output/butyl_anthranilate/butyl_anthranilate E -113.807006246731
  C       4.490385      0.452843     -0.063089
  C       3.811693     -0.453603      0.953417
  C       2.293891     -0.346036      0.954713
  C       1.669648     -0.918586     -0.298181
  O       0.252309     -0.970232     -0.213982
  C      -0.414394      0.162594     -0.413052
  O       0.141108      1.194217     -0.693431
  C      -1.872314     -0.006367     -0.291741
  C      -2.417715     -1.253644     -0.582491
  C      -3.776362     -1.470970     -0.551259
  C      -4.614558     -0.423501     -0.203336
  C      -4.095808      0.811110      0.113537
  C      -2.720659      1.047571      0.078091
  N      -2.264038      2.284982      0.412238
  H       4.174606      1.486017      0.070820
  H       4.258476      0.157271     -1.084149
  H       5.572082      0.413474      0.051351
  H       4.105663     -1.489497      0.771881
  H       4.173369     -0.199650      1.949648
  H       1.892915     -0.889511      1.811282
  H       1.999303      0.696265      1.061625
  H       1.983793     -1.950620     -0.432082
  H       1.954726     -0.350926     -1.180969
  H      -1.758035     -2.063473     -0.854023
  H      -4.180273     -2.443403     -0.792367
  H      -5.684675     -0.575538     -0.170566
  H      -4.762443      1.613800      0.397530
  H      -1.294875      2.472671      0.563784
  H      -2.917820      3.012740      0.613984
29
Coordinates from ORCA-job ./output/butyl_anthranilate/butyl_anthranilate E -113.810280938182
  C       4.489612      0.461460     -0.021792
  C       3.821628     -0.510933      0.936074
  C       2.305320     -0.409219      0.962456
  C       1.672716     -0.876123     -0.326478
  O       0.250297     -0.938133     -0.236892
  C      -0.415428      0.204871     -0.384873
  O       0.134149      1.259378     -0.579973
  C      -1.876425      0.006739     -0.284062
  C      -2.408770     -1.254314     -0.539517
  C      -3.761722     -1.492366     -0.494671
  C      -4.609295     -0.444916     -0.160828
  C      -4.106791      0.803234      0.112368
  C      -2.733702      1.065421      0.045458
  N      -2.292441      2.323568      0.293742
  H       4.178041      1.484143      0.184915
  H       4.244364      0.244705     -1.059393
  H       5.572765      0.416402      0.071938
  H       4.114230     -1.532350      0.683249
  H       4.193876     -0.331322      1.944342
  H       1.909869     -1.019584      1.774790
  H       2.008925      0.620548      1.155856
  H       1.976291     -1.896962     -0.546206
  H       1.946949     -0.240137     -1.163570
  H      -1.732686     -2.059080     -0.782414
  H      -4.153312     -2.476320     -0.706255
  H      -5.677465     -0.607718     -0.111349
  H      -4.780142      1.608334      0.374806
  H      -1.320266      2.553320      0.310999
  H      -2.950587      3.037352      0.526463
29
Coordinates from ORCA-job ./output/butyl_anthranilate/butyl_anthranilate E -113.812469749509
  C       4.479571      0.510784      0.076956
  C       3.847394     -0.605706      0.886820
  C       2.330051     -0.547082      0.948192
  C       1.689062     -0.802721     -0.393095
  O       0.262887     -0.903046     -0.291622
  C      -0.423438      0.241400     -0.300601
  O       0.111983      1.321857     -0.384471
  C      -1.883988      0.012470     -0.253712
  C      -2.406332     -1.269170     -0.423270
  C      -3.754833     -1.518145     -0.359315
  C      -4.611149     -0.453389     -0.090488
  C      -4.124565      0.816151      0.077693
  C      -2.751936      1.092330     -0.028937
  N      -2.320954      2.370366      0.081130
  H       4.154792      1.486930      0.438111
  H       4.217626      0.454452     -0.978673
  H       5.566089      0.477650      0.141555
  H       4.158127     -1.573731      0.484345
  H       4.232575     -0.574104      1.906832
  H       1.956651     -1.292338      1.651672
  H       2.011987      0.429239      1.315283
  H       1.995446     -1.770276     -0.786895
  H       1.933228     -0.029524     -1.116446
  H      -1.714713     -2.078382     -0.597686
  H      -4.137403     -2.517894     -0.499743
  H      -5.677754     -0.620313     -0.019978
  H      -4.803157      1.636153      0.273744
  H      -1.364691      2.614755     -0.096540
  H      -2.972554      3.091280      0.318324
29
Coordinates from ORCA-job ./output/butyl_anthranilate/butyl_anthranilate E -113.812473222430
  C       4.457174      0.541789      0.136317
  C       3.820071     -0.604150      0.900557
  C       2.299789     -0.572275      0.913706
  C       1.704177     -0.796457     -0.455042
  O       0.277931     -0.911896     -0.394998
  C      -0.424513      0.223592     -0.404585
  O       0.108507      1.311159     -0.393326
  C      -1.876952     -0.002144     -0.287955
  C      -2.411764     -1.284725     -0.411090
  C      -3.759405     -1.520695     -0.295386
  C      -4.602063     -0.443775     -0.028441
  C      -4.103703      0.827169      0.094451
  C      -2.731634      1.087637     -0.050637
  N      -2.278556      2.360596      0.045897
  H       4.106155      1.503931      0.511291
  H       4.227093      0.505426     -0.927987
  H       5.542141      0.522968      0.233130
  H       4.161044     -1.557671      0.487295
  H       4.171816     -0.587049      1.933454
  H       1.918600     -1.345918      1.582216
  H       1.952304      0.386675      1.301125
  H       2.034888     -1.747849     -0.868536
  H       1.959854      0.002090     -1.146779
  H      -1.732954     -2.102002     -0.599568
  H      -4.153768     -2.520012     -0.403054
  H      -5.666673     -0.603094      0.079335
  H      -4.770405      1.655625      0.294597
  H      -1.314042      2.572393     -0.138156
  H      -2.915112      3.098662      0.271354
29
Coordinates from ORCA-job ./output/butyl_anthranilate/butyl_anthranilate E -113.813457422070
  C       4.465735      0.535992      0.129273
  C       3.846110     -0.637314      0.867398
  C       2.325686     -0.609311      0.909977
  C       1.702272     -0.781727     -0.454948
  O       0.279185     -0.893211     -0.366139
  C      -0.424397      0.241530     -0.330729
  O       0.114139      1.327494     -0.360086
  C      -1.876876      0.020398     -0.233421
  C      -2.393296     -1.273009     -0.328330
  C      -3.741665     -1.521185     -0.256208
  C      -4.609354     -0.447866     -0.075750
  C      -4.132905      0.834236      0.020204
  C      -2.758319      1.107721     -0.060454
  N      -2.332672      2.392269      0.039755
  H       4.121688      1.483743      0.545155
  H       4.213347      0.533319     -0.930677
  H       5.552637      0.514093      0.203760
  H       4.181428     -1.575563      0.416352
  H       4.217015     -0.650721      1.893794
  H       1.960486     -1.410412      1.555150
  H       1.983798      0.332656      1.341962
  H       2.023742     -1.716958     -0.910484
  H       1.947426      0.042122     -1.120535
  H      -1.700550     -2.089068     -0.466286
  H      -4.119625     -2.529164     -0.341061
  H      -5.675424     -0.619468     -0.009943
  H      -4.819149      1.658694      0.160702
  H      -1.354907      2.603523     -0.040060
  H      -2.995553      3.127184      0.180815
29
Coordinates from ORCA-job ./output/butyl_anthranilate/butyl_anthranilate E -113.813627669972
  C       4.455755      0.556279      0.168725
  C       3.851532     -0.666090      0.836554
  C       2.331465     -0.657810      0.887318
  C       1.701489     -0.750071     -0.481849
  O       0.280335     -0.875452     -0.388139
  C      -0.427687      0.250364     -0.281656
  O       0.101998      1.341475     -0.279388
  C      -1.876755      0.021191     -0.206268
  C      -2.390309     -1.275910     -0.264184
  C      -3.738431     -1.523630     -0.195012
  C      -4.609365     -0.445077     -0.064831
  C      -4.135163      0.839948     -0.009626
  C      -2.759490      1.110584     -0.080416
  N      -2.328971      2.392733     -0.026352
  H       4.104678      1.473131      0.643132
  H       4.198395      0.615878     -0.887987
  H       5.542873      0.540829      0.236996
  H       4.194519     -1.571607      0.328653
  H       4.227097     -0.737299      1.858551
  H       1.978616     -1.501770      1.482273
  H       1.981071      0.251092      1.378782
  H       2.024924     -1.652511     -0.997529
  H       1.936138      0.115567     -1.095148
  H      -1.694438     -2.094301     -0.363836
  H      -4.114595     -2.534691     -0.243861
  H      -5.676106     -0.615612     -0.007155
  H      -4.823054      1.669164      0.088244
  H      -1.347119      2.585675     -0.116643
  H      -2.989405      3.137921      0.059835
29
Coordinates from ORCA-job ./output/butyl_anthranilate/butyl_anthranilate E -113.813693942069
  C       4.453857      0.555353      0.175127
  C       3.845960     -0.667069      0.839749
  C       2.325701     -0.659484      0.881471
  C       1.703010     -0.751728     -0.491139
  O       0.281355     -0.873946     -0.404822
  C      -0.425043      0.252831     -0.300735
  O       0.107845      1.342773     -0.288663
  C      -1.873694      0.024899     -0.213303
  C      -2.385448     -1.273576     -0.262016
  C      -3.732575     -1.523788     -0.186776
  C      -4.605345     -0.446529     -0.058614
  C      -4.133543      0.839390     -0.008116
  C      -2.758623      1.113146     -0.083574
  N      -2.332255      2.396687     -0.025060
  H       4.100049      1.472118      0.647654
  H       4.202538      0.614567     -0.883057
  H       5.540556      0.539656      0.249757
  H       4.192385     -1.572639      0.334251
  H       4.215327     -0.737434      1.864069
  H       1.969937     -1.503591      1.474519
  H       1.971987      0.249430      1.370507
  H       2.027492     -1.654968     -1.004694
  H       1.943031      0.113186     -1.103535
  H      -1.688712     -2.091225     -0.361946
  H      -4.106853     -2.535873     -0.228411
  H      -5.671508     -0.619298      0.002728
  H      -4.822895      1.667202      0.091481
  H      -1.348772      2.589732     -0.102554
  H      -2.995766      3.140178      0.054887
29
Coordinates from ORCA-job ./output/butyl_anthranilate/butyl_anthranilate E -113.813701595450
  C       4.451907      0.557430      0.182633
  C       3.843781     -0.669698      0.838395
  C       2.323532     -0.664408      0.876539
  C       1.703686     -0.750404     -0.497836
  O       0.281753     -0.871951     -0.415511
  C      -0.423818      0.254370     -0.304306
  O       0.109450      1.344002     -0.285358
  C      -1.872383      0.026246     -0.213721
  C      -2.383521     -1.272845     -0.256634
  C      -3.730169     -1.524010     -0.178479
  C      -4.603610     -0.446785     -0.053292
  C      -4.132542      0.839404     -0.007441
  C      -2.757796      1.114184     -0.085044
  N      -2.332472      2.398554     -0.030960
  H       4.095934      1.470821      0.659993
  H       4.203160      0.622751     -0.875785
  H       5.538410      0.542274      0.259945
  H       4.192636     -1.571764      0.328322
  H       4.210686     -0.745629      1.863191
  H       1.967602     -1.511864      1.464686
  H       1.967404      0.241759      1.368826
  H       2.028480     -1.651549     -1.014780
  H       1.946014      0.116972     -1.105911
  H      -1.686427     -2.090412     -0.354714
  H      -4.103716     -2.536565     -0.214421
  H      -5.669596     -0.620207      0.009286
  H      -4.822357      1.667074      0.090455
  H      -1.348860      2.590429     -0.108244
  H      -2.997169      3.141819      0.039349
29
Coordinates from ORCA-job ./output/butyl_anthranilate/butyl_anthranilate E -113.813705297051
  C       4.449900      0.559760      0.186816
  C       3.842251     -0.670427      0.837361
  C       2.322039     -0.667088      0.873633
  C       1.703904     -0.751535     -0.501644
  O       0.281761     -0.871944     -0.422061
  C      -0.422422      0.254435     -0.304837
  O       0.111514      1.343435     -0.281534
  C      -1.871323      0.026814     -0.213391
  C      -2.382508     -1.272371     -0.254182
  C      -3.728977     -1.523822     -0.174915
  C      -4.602464     -0.446436     -0.050479
  C      -4.131250      0.839649     -0.006276
  C      -2.756599      1.114671     -0.085323
  N      -2.331744      2.399481     -0.032550
  H       4.092301      1.470913      0.667157
  H       4.202535      0.628634     -0.871673
  H       5.536284      0.545296      0.265642
  H       4.192885     -1.570195      0.324474
  H       4.207865     -0.749539      1.862349
  H       1.966450     -1.515824      1.460110
  H       1.964217      0.238050      1.366515
  H       2.028459     -1.652522     -1.018949
  H       1.948242      0.115988     -1.108765
  H      -1.685509     -2.090104     -0.351588
  H      -4.102403     -2.536494     -0.208373
  H      -5.668394     -0.619965      0.012702
  H      -4.820996      1.667392      0.091754
  H      -1.348374      2.591322     -0.111657
  H      -2.997647      3.142424      0.028868
29
Coordinates from ORCA-job ./output/butyl_anthranilate/butyl_anthranilate E -113.813708003394
  C       4.447998      0.562317      0.189046
  C       3.841409     -0.669989      0.836661
  C       2.321178     -0.668362      0.872236
  C       1.704020     -0.753825     -0.503457
  O       0.281736     -0.873271     -0.425795
  C      -0.421377      0.253365     -0.304768
  O       0.113198      1.341859     -0.279783
  C      -1.870605      0.026548     -0.212529
  C      -2.382384     -1.272374     -0.253433
  C      -3.728947     -1.523354     -0.173978
  C      -4.601976     -0.445590     -0.049216
  C      -4.129967      0.840189     -0.004784
  C      -2.755254      1.114610     -0.084035
  N      -2.330122      2.399500     -0.030638
  H       4.089224      1.471931      0.671379
  H       4.200980      0.633238     -0.869373
  H       5.534353      0.548663      0.268362
  H       4.193373     -1.568205      0.321967
  H       4.206609     -0.750817      1.861650
  H       1.966286     -1.517349      1.458765
  H       1.962176      0.236560      1.364562
  H       2.028378     -1.655611     -1.019454
  H       1.949869      0.112710     -1.111463
  H      -1.685948     -2.090536     -0.351261
  H      -4.102826     -2.535856     -0.207375
  H      -5.667945     -0.618743      0.014198
  H      -4.819240      1.668231      0.094146
  H      -1.347330      2.591795     -0.114124
  H      -2.996868      3.142362      0.021679
29
Coordinates from ORCA-job ./output/butyl_anthranilate/butyl_anthranilate E -113.813714261037
  C       4.443883      0.568061      0.192029
  C       3.840144     -0.668085      0.835185
  C       2.319844     -0.670016      0.870509
  C       1.703997     -0.759826     -0.505533
  O       0.281468     -0.877172     -0.430902
  C      -0.419386      0.250261     -0.303824
  O       0.116798      1.337666     -0.277027
  C      -1.869205      0.025442     -0.210115
  C      -2.382662     -1.272668     -0.253053
  C      -3.729631     -1.522049     -0.174304
  C      -4.601337     -0.443343     -0.048192
  C      -4.127233      0.841633     -0.001518
  C      -2.752239      1.114219     -0.080016
  N      -2.325872      2.398822     -0.021267
  H       4.083256      1.474884      0.678139
  H       4.196376      0.642442     -0.866009
  H       5.530267      0.556139      0.271127
  H       4.194506     -1.563525      0.317311
  H       4.205363     -0.751533      1.859936
  H       1.966870     -1.518710      1.458624
  H       1.958791      0.235079      1.360813
  H       2.027730     -1.664219     -1.017285
  H       1.952576      0.103561     -1.117033
  H      -1.687709     -2.091920     -0.352306
  H      -4.104880     -2.533986     -0.209454
  H      -5.667494     -0.615338      0.014968
  H      -4.815243      1.670427      0.099999
  H      -1.344768      2.592147     -0.118758
  H      -2.994209      3.141606      0.007140
29
Coordinates from ORCA-job ./output/butyl_anthranilate/butyl_anthranilate E -113.813722524806
  C       4.429431      0.588670      0.200019
  C       3.836593     -0.660058      0.829629
  C       2.316083     -0.674197      0.866270
  C       1.703230     -0.782400     -0.509903
  O       0.279977     -0.891761     -0.444120
  C      -0.412626      0.238790     -0.299221
  O       0.129806      1.322206     -0.269619
  C      -1.864408      0.021615     -0.199450
  C      -2.384311     -1.273239     -0.253241
  C      -3.732945     -1.516308     -0.179233
  C      -4.599640     -0.434317     -0.047465
  C      -4.117712      0.847458      0.011239
  C      -2.741512      1.113005     -0.061076
  N      -2.310332      2.396144      0.024108
  H       4.063758      1.486084      0.699367
  H       4.177880      0.674494     -0.856099
  H       5.516082      0.582548      0.276015
  H       4.198389     -1.546262      0.301116
  H       4.203561     -0.751635      1.853003
  H       1.970554     -1.520488      1.462223
  H       1.948727      0.232443      1.348268
  H       2.023972     -1.697266     -1.004429
  H       1.960991      0.068037     -1.136036
  H      -1.694971     -2.096398     -0.358978
  H      -4.113437     -2.525929     -0.223706
  H      -5.666637     -0.601837      0.012512
  H      -4.801079      1.678788      0.123033
  H      -1.337720      2.588481     -0.134894
  H      -2.981706      3.133332     -0.050147
29
Coordinates from ORCA-job ./output/butyl_anthranilate/butyl_anthranilate E -113.813737819822
  C       4.436408      0.579307      0.194128
  C       3.839157     -0.662666      0.832468
  C       2.318717     -0.670892      0.870092
  C       1.703291     -0.773333     -0.505299
  O       0.280419     -0.886460     -0.433850
  C      -0.416309      0.243048     -0.301018
  O       0.123069      1.328493     -0.276477
  C      -1.867096      0.022531     -0.203712
  C      -2.384454     -1.273529     -0.255257
  C      -3.732564     -1.518856     -0.180322
  C      -4.601108     -0.438307     -0.049697
  C      -4.122187      0.844735      0.006312
  C      -2.746451      1.112872     -0.067405
  N      -2.316455      2.396902      0.010481
  H       4.073988      1.481825      0.686714
  H       4.185148      0.658592     -0.862615
  H       5.523053      0.570415      0.269901
  H       4.196870     -1.553969      0.309793
  H       4.206441     -0.749052      1.856201
  H       1.970245     -1.517172      1.464337
  H       1.954965      0.235912      1.354804
  H       2.025247     -1.684436     -1.006053
  H       1.956036      0.081881     -1.126707
  H      -1.692867     -2.095026     -0.359260
  H      -4.111101     -2.529292     -0.223036
  H      -5.667848     -0.607450      0.010771
  H      -4.807334      1.675029      0.114709
  H      -1.340372      2.590816     -0.127337
  H      -2.986910      3.138081     -0.023482
29
Coordinates from ORCA-job ./output/butyl_anthranilate/butyl_anthranilate E -113.813761520719
  C       4.437196      0.579131      0.190152
  C       3.840864     -0.661025      0.832758
  C       2.320451     -0.668536      0.873294
  C       1.702681     -0.775135     -0.500676
  O       0.279899     -0.888108     -0.425889
  C      -0.417188      0.242095     -0.299981
  O       0.122010      1.327754     -0.282167
  C      -1.867871      0.021782     -0.201772
  C      -2.385779     -1.273823     -0.258455
  C      -3.734259     -1.518304     -0.186312
  C      -4.602254     -0.437825     -0.053393
  C      -4.122539      0.844831      0.008243
  C      -2.746684      1.112111     -0.062084
  N      -2.315341      2.396178      0.026677
  H       4.076795      1.482978      0.681787
  H       4.182925      0.656465     -0.866025
  H       5.524051      0.569784      0.262761
  H       4.197197     -1.553812      0.311668
  H       4.210208     -0.745029      1.855945
  H       1.972734     -1.512928      1.470664
  H       1.958050      0.239722      1.356320
  H       2.023950     -1.687890     -0.998902
  H       1.953996      0.078182     -1.125191
  H      -1.694545     -2.095332     -0.364684
  H      -4.113358     -2.528351     -0.233511
  H      -5.669233     -0.606361      0.004625
  H      -4.807231      1.675162      0.119130
  H      -1.341256      2.589380     -0.127870
  H      -2.985470      3.136900     -0.027930
29
Coordinates from ORCA-job ./output/butyl_anthranilate/butyl_anthranilate E -113.813508755310
  C       4.443254      0.576803      0.157224
  C       3.852773     -0.647019      0.834981
  C       2.332791     -0.649210      0.895519
  C       1.697542     -0.788340     -0.467190
  O       0.275763     -0.898084     -0.366338
  C      -0.421367      0.236345     -0.285370
  O       0.118567      1.321427     -0.309930
  C      -1.872548      0.018878     -0.182726
  C      -2.395013     -1.272360     -0.281051
  C      -3.746062     -1.510409     -0.233593
  C      -4.610312     -0.430550     -0.084571
  C      -4.124685      0.847723      0.023267
  C      -2.747832      1.108165     -0.016616
  N      -2.309304      2.387987      0.157515
  H       4.097127      1.492320      0.637620
  H       4.168683      0.635795     -0.895160
  H       5.531356      0.563737      0.208466
  H       4.199522     -1.552537      0.329482
  H       4.236127     -0.709746      1.854609
  H       1.990383     -1.477953      1.517440
  H       1.979301      0.270984      1.362889
  H       2.012476     -1.713479     -0.946487
  H       1.938554      0.050178     -1.114990
  H      -1.706229     -2.093469     -0.404040
  H      -4.129043     -2.516855     -0.315478
  H      -5.679053     -0.594003     -0.048782
  H      -4.806154      1.677878      0.153217
  H      -1.358649      2.558938     -0.126203
  H      -2.967968      3.106853     -0.074519
29
Coordinates from ORCA-job ./output/butyl_anthranilate/butyl_anthranilate E -113.813807740395
  C       4.446519      0.568801      0.163619
  C       3.847959     -0.652551      0.838873
  C       2.327880     -0.651620      0.888761
  C       1.699434     -0.777540     -0.478540
  O       0.277643     -0.891133     -0.385093
  C      -0.421647      0.240627     -0.294230
  O       0.115753      1.327395     -0.302530
  C      -1.872361      0.019884     -0.196648
  C      -2.391127     -1.274139     -0.276687
  C      -3.740625     -1.517211     -0.217215
  C      -4.607795     -0.438215     -0.073679
  C      -4.126680      0.842855      0.013390
  C      -2.750586      1.108531     -0.041953
  N      -2.315635      2.391097      0.085489
  H       4.095835      1.486137      0.637181
  H       4.183842      0.624114     -0.891968
  H       5.533938      0.555084      0.227016
  H       4.196111     -1.559488      0.337001
  H       4.223446     -0.714693      1.861452
  H       1.979460     -1.484191      1.502105
  H       1.972679      0.266126      1.359686
  H       2.018217     -1.695911     -0.968057
  H       1.941783      0.069196     -1.115085
  H      -1.699630     -2.094086     -0.392295
  H      -4.120505     -2.525964     -0.282931
  H      -5.675581     -0.605310     -0.027400
  H      -4.810741      1.672323      0.133808
  H      -1.346040      2.578599     -0.105823
  H      -2.981547      3.131278     -0.019063
29
Coordinates from ORCA-job ./output/butyl_anthranilate/butyl_anthranilate E -113.813810460071
  C       4.446418      0.568791      0.168368
  C       3.847838     -0.655599      0.837985
  C       2.327759     -0.655814      0.886409
  C       1.700444     -0.773919     -0.482190
  O       0.278320     -0.888301     -0.391172
  C      -0.421552      0.242716     -0.294530
  O       0.115278      1.330000     -0.299205
  C      -1.872224      0.021027     -0.196474
  C      -2.390237     -1.273616     -0.272102
  C      -3.739424     -1.517616     -0.211253
  C      -4.607362     -0.438661     -0.069923
  C      -4.127207      0.842891      0.013029
  C      -2.751207      1.109699     -0.044654
  N      -2.317312      2.392515      0.078728
  H       4.094286      1.484028      0.644904
  H       4.185370      0.628036     -0.887419
  H       5.533742      0.555664      0.233413
  H       4.197083     -1.560280      0.332775
  H       4.222285     -0.721794      1.860687
  H       1.979184     -1.492019      1.494683
  H       1.971441      0.259041      1.361945
  H       2.019464     -1.689392     -0.976963
  H       1.943427      0.076458     -1.113673
  H      -1.698124     -2.093342     -0.385853
  H      -4.118649     -2.526800     -0.273920
  H      -5.674963     -0.606498     -0.022008
  H      -4.811701      1.672189      0.132264
  H      -1.348248      2.579150     -0.116687
  H      -2.984131      3.131446     -0.027977
29
Coordinates from ORCA-job ./output/butyl_anthranilate/butyl_anthranilate E -113.813811099095
  C       4.447245      0.567097      0.166752
  C       3.847668     -0.655473      0.838811
  C       2.327616     -0.654810      0.886709
  C       1.700452     -0.772870     -0.481963
  O       0.278366     -0.887506     -0.390829
  C      -0.421670      0.243264     -0.293754
  O       0.114816      1.330685     -0.298007
  C      -1.872286      0.021331     -0.195882
  C      -2.389997     -1.273353     -0.272714
  C      -3.739113     -1.517787     -0.212358
  C      -4.607360     -0.439105     -0.070605
  C      -4.127496      0.842471      0.013439
  C      -2.751501      1.109683     -0.043332
  N      -2.317913      2.392473      0.081104
  H       4.094790      1.483628      0.640556
  H       4.187458      0.623656     -0.889488
  H       5.534487      0.553861      0.233093
  H       4.196626     -1.561447      0.335735
  H       4.221608     -0.719605      1.861826
  H       1.978392     -1.490587      1.495196
  H       1.971519      0.260475      1.361636
  H       2.019568     -1.688085     -0.977155
  H       1.943239      0.077786     -1.113131
  H      -1.697630     -2.092814     -0.386884
  H      -4.118091     -2.527010     -0.275823
  H      -5.674937     -0.607250     -0.023228
  H      -4.812204      1.671533      0.133114
  H      -1.348992      2.578750     -0.115081
  H      -2.984659      3.131010     -0.028552
