! wB97X-3c OPT FREQ TightSCF
%pal
  nprocs 40
end
* xyz 0 1
C      4.508302    -0.287958     0.264937
C      3.214364    -1.027714     0.274042
O      2.923205    -1.787424    -0.689475
O      2.317380    -0.833416     1.330287
C      1.030045    -1.443532     1.384741
C      0.119893    -0.832344     0.355985
C     -0.389963    -1.553672    -0.686170
C     -1.306013    -0.841996    -1.701741
C     -1.438033     0.676672    -1.334522
C     -0.003486     1.162988    -1.042845
C     -0.228123     0.661672     0.397011
C     -1.753191     0.840941     0.177975
C     -2.232256     2.273335     0.524210
C     -2.719836    -0.172986     0.852051
H      4.400691     0.635850    -0.340528
H      5.307882    -0.922639    -0.172036
H      4.795052    -0.012970     1.301528
H      0.594363    -1.265301     2.389747
H      1.125230    -2.543150     1.247774
H     -0.172868    -2.611173    -0.799291
H     -2.307292    -1.321359    -1.710672
H     -0.868202    -0.940548    -2.717698
H     -2.025953     1.301472    -2.041045
H      0.810670     0.659855    -1.615517
H      0.100890     2.267733    -1.104818
H      0.243538     1.264559     1.203135
H     -2.221546     2.420029     1.625324
H     -3.270144     2.423472     0.157690
H     -1.601287     3.066430     0.075055
H     -2.463748    -1.238723     0.714805
H     -2.744189     0.010295     1.947224
H     -3.745373    -0.028399     0.451087
*
