32
Coordinates from ORCA-job ./output/myrtenyl_acetate/myrtenyl_acetate E -111.292984659453
  C       4.508302     -0.287958      0.264937
  C       3.214364     -1.027714      0.274042
  O       2.923205     -1.787424     -0.689475
  O       2.317380     -0.833416      1.330287
  C       1.030045     -1.443532      1.384741
  C       0.119893     -0.832344      0.355985
  C      -0.389963     -1.553672     -0.686170
  C      -1.306013     -0.841996     -1.701741
  C      -1.438033      0.676672     -1.334522
  C      -0.003486      1.162988     -1.042845
  C      -0.228123      0.661672      0.397011
  C      -1.753191      0.840941      0.177975
  C      -2.232256      2.273335      0.524210
  C      -2.719836     -0.172986      0.852051
  H       4.400691      0.635850     -0.340528
  H       5.307882     -0.922639     -0.172036
  H       4.795052     -0.012970      1.301528
  H       0.594363     -1.265301      2.389747
  H       1.125230     -2.543150      1.247774
  H      -0.172868     -2.611173     -0.799291
  H      -2.307292     -1.321359     -1.710672
  H      -0.868202     -0.940548     -2.717698
  H      -2.025953      1.301472     -2.041045
  H       0.810670      0.659855     -1.615517
  H       0.100890      2.267733     -1.104818
  H       0.243538      1.264559      1.203135
  H      -2.221546      2.420029      1.625324
  H      -3.270144      2.423472      0.157690
  H      -1.601287      3.066430      0.075055
  H      -2.463748     -1.238723      0.714805
  H      -2.744189      0.010295      1.947224
  H      -3.745373     -0.028399      0.451087
32
Coordinates from ORCA-job ./output/myrtenyl_acetate/myrtenyl_acetate E -111.318302146798
  C       4.443736     -0.289045      0.290987
  C       3.168815     -1.049888      0.283257
  O       2.886625     -1.827500     -0.605545
  O       2.334569     -0.814151      1.314607
  C       1.055788     -1.432308      1.334503
  C       0.137087     -0.827367      0.321661
  C      -0.371078     -1.522840     -0.699888
  C      -1.296362     -0.835784     -1.688536
  C      -1.437778      0.654681     -1.328856
  C      -0.015556      1.177718     -1.046428
  C      -0.214138      0.643637      0.386203
  C      -1.740758      0.825321      0.180940
  C      -2.203954      2.240585      0.521844
  C      -2.708020     -0.144001      0.858400
  H       4.331313      0.597434     -0.334569
  H       5.236121     -0.915205     -0.112109
  H       4.705100      0.024984      1.303272
  H       0.650857     -1.264044      2.334506
  H       1.160582     -2.510252      1.186321
  H      -0.140654     -2.572272     -0.828020
  H      -2.275718     -1.326639     -1.690000
  H      -0.877530     -0.930021     -2.695843
  H      -2.043071      1.243463     -2.023629
  H       0.790324      0.712253     -1.618547
  H       0.064286      2.265424     -1.092407
  H       0.261141      1.210501      1.191027
  H      -2.187009      2.390621      1.605156
  H      -3.227520      2.394995      0.168777
  H      -1.577637      3.012427      0.070153
  H      -2.465690     -1.195473      0.721912
  H      -2.724160      0.046224      1.936408
  H      -3.719707      0.016518      0.472694
32
Coordinates from ORCA-job ./output/myrtenyl_acetate/myrtenyl_acetate E -111.322592763442
  C       4.414914     -0.268434      0.331367
  C       3.190386     -1.119182      0.320324
  O       2.990627     -1.991239     -0.476180
  O       2.340510     -0.807626      1.293065
  C       1.062924     -1.440681      1.277040
  C       0.142546     -0.833570      0.273312
  C      -0.382831     -1.513416     -0.732888
  C      -1.319991     -0.831044     -1.687401
  C      -1.455139      0.644278     -1.326490
  C      -0.043911      1.207233     -1.059794
  C      -0.203629      0.628783      0.364148
  C      -1.735635      0.822533      0.187754
  C      -2.169670      2.240959      0.523822
  C      -2.693422     -0.128328      0.876180
  H       4.280456      0.542337     -0.380417
  H       5.260249     -0.871118      0.020546
  H       4.597814      0.159031      1.311957
  H       0.672822     -1.282211      2.280234
  H       1.181215     -2.509071      1.112618
  H      -0.142404     -2.557805     -0.886018
  H      -2.292956     -1.326936     -1.675053
  H      -0.929532     -0.926742     -2.702467
  H      -2.093049      1.200579     -2.012526
  H       0.764799      0.785529     -1.651552
  H       0.002267      2.290953     -1.083280
  H       0.285271      1.156173      1.181403
  H      -2.137632      2.399633      1.601268
  H      -3.192352      2.410532      0.188397
  H      -1.540691      2.996996      0.059750
  H      -2.452486     -1.176160      0.726411
  H      -2.694322      0.058299      1.950570
  H      -3.707150      0.039713      0.512149
32
Coordinates from ORCA-job ./output/myrtenyl_acetate/myrtenyl_acetate E -111.323160718148
  C       4.422295     -0.271113      0.353226
  C       3.202904     -1.136440      0.336045
  O       3.006138     -2.011453     -0.460922
  O       2.333597     -0.791406      1.287368
  C       1.058031     -1.438407      1.265354
  C       0.145850     -0.831247      0.257963
  C      -0.384364     -1.512735     -0.746232
  C      -1.331856     -0.830734     -1.687555
  C      -1.461802      0.643216     -1.327740
  C      -0.051494      1.211086     -1.071291
  C      -0.199090      0.630756      0.353060
  C      -1.735659      0.825416      0.189982
  C      -2.165680      2.245866      0.524576
  C      -2.684970     -0.128117      0.884212
  H       4.281642      0.535332     -0.363124
  H       5.276018     -0.863363      0.042282
  H       4.594677      0.162106      1.332523
  H       0.668159     -1.285992      2.270188
  H       1.188088     -2.503205      1.091014
  H      -0.142553     -2.556602     -0.904287
  H      -2.305268     -1.326129     -1.663640
  H      -0.960245     -0.931226     -2.709826
  H      -2.112343      1.184848     -2.014848
  H       0.758208      0.798844     -1.670132
  H      -0.013263      2.293965     -1.096655
  H       0.296464      1.144582      1.175459
  H      -2.131233      2.406798      1.602039
  H      -3.190564      2.416266      0.194930
  H      -1.540443      3.002307      0.058573
  H      -2.437463     -1.173326      0.726812
  H      -2.680787      0.054516      1.959494
  H      -3.702991      0.035591      0.529401
32
Coordinates from ORCA-job ./output/myrtenyl_acetate/myrtenyl_acetate E -111.322987397547
  C       4.478553     -0.304076      0.407149
  C       3.229661     -1.130712      0.328278
  O       3.073256     -2.068454     -0.407775
  O       2.330022     -0.738891      1.244884
  C       1.061680     -1.416495      1.228867
  C       0.146633     -0.814887      0.224685
  C      -0.395021     -1.504481     -0.772155
  C      -1.365776     -0.825484     -1.691503
  C      -1.494352      0.648230     -1.330913
  C      -0.085743      1.224886     -1.100184
  C      -0.203619      0.646985      0.326043
  C      -1.748351      0.832260      0.193790
  C      -2.181544      2.251692      0.531944
  C      -2.672967     -0.134353      0.903047
  H       4.410838      0.478674     -0.347146
  H       5.335673     -0.927819      0.169261
  H       4.591435      0.162445      1.380034
  H       0.679253     -1.277845      2.239733
  H       1.216634     -2.475145      1.037457
  H      -0.149721     -2.547289     -0.935174
  H      -2.338158     -1.324114     -1.645054
  H      -1.027792     -0.930640     -2.726455
  H      -2.169027      1.166966     -2.015060
  H       0.721907      0.827067     -1.714659
  H      -0.061762      2.308411     -1.131418
  H       0.305931      1.145712      1.150771
  H      -2.137962      2.413671      1.610297
  H      -3.213820      2.415387      0.217734
  H      -1.570520      3.016019      0.060449
  H      -2.408556     -1.174023      0.732887
  H      -2.655475      0.042424      1.980163
  H      -3.701309      0.013879      0.568274
32
Coordinates from ORCA-job ./output/myrtenyl_acetate/myrtenyl_acetate E -111.323437054882
  C       4.454663     -0.288841      0.382187
  C       3.228418     -1.146925      0.349371
  O       3.055079     -2.060313     -0.409274
  O       2.329760     -0.758146      1.263322
  C       1.058447     -1.427064      1.243748
  C       0.145090     -0.821744      0.238051
  C      -0.391789     -1.509053     -0.761830
  C      -1.351405     -0.825707     -1.691881
  C      -1.480253      0.649389     -1.330009
  C      -0.070948      1.218709     -1.088143
  C      -0.201675      0.641960      0.336537
  C      -1.743134      0.831325      0.191937
  C      -2.175166      2.250333      0.529470
  C      -2.677553     -0.131203      0.894647
  H       4.334666      0.502054     -0.356813
  H       5.315477     -0.887458      0.101044
  H       4.598487      0.165659      1.356820
  H       0.672253     -1.287930      2.252467
  H       1.208398     -2.487038      1.054243
  H      -0.150992     -2.553195     -0.920201
  H      -2.325539     -1.321412     -1.655031
  H      -1.001802     -0.928892     -2.722766
  H      -2.144582      1.176121     -2.017298
  H       0.737761      0.815755     -1.696274
  H      -0.040299      2.303161     -1.117913
  H       0.303586      1.143531      1.161650
  H      -2.138292      2.410120      1.608131
  H      -3.204252      2.417038      0.207372
  H      -1.557415      3.013341      0.062806
  H      -2.417975     -1.172741      0.729416
  H      -2.666909      0.047564      1.971326
  H      -3.702102      0.021600      0.551140
32
Coordinates from ORCA-job ./output/myrtenyl_acetate/myrtenyl_acetate E -111.323456605261
  C       4.457352     -0.293350      0.380828
  C       3.230197     -1.148396      0.349566
  O       3.056300     -2.063566     -0.406911
  O       2.331169     -0.756144      1.260274
  C       1.060277     -1.424719      1.243881
  C       0.145350     -0.819747      0.238992
  C      -0.389060     -1.507636     -0.761199
  C      -1.349337     -0.825923     -1.691741
  C      -1.481341      0.649314     -1.329732
  C      -0.073143      1.220691     -1.086756
  C      -0.203583      0.643560      0.337310
  C      -1.744664      0.831038      0.191523
  C      -2.178135      2.249559      0.528231
  C      -2.679723     -0.130726      0.894543
  H       4.334839      0.502345     -0.352256
  H       5.315778     -0.891521      0.092700
  H       4.605973      0.154849      1.357673
  H       0.675283     -1.286217      2.252969
  H       1.210542     -2.484323      1.054070
  H      -0.147481     -2.551725     -0.918128
  H      -2.322518     -1.323307     -1.655037
  H      -0.999070     -0.927473     -2.722242
  H      -2.144993      1.175612     -2.017559
  H       0.736312      0.819736     -1.694811
  H      -0.043990      2.305173     -1.115360
  H       0.301171      1.146128      1.161832
  H      -2.142542      2.409670      1.606692
  H      -3.206717      2.415458      0.204699
  H      -1.560132      3.012563      0.061959
  H      -2.420700     -1.172590      0.731436
  H      -2.669627      0.049759      1.970773
  H      -3.703784      0.021907      0.550031
32
Coordinates from ORCA-job ./output/myrtenyl_acetate/myrtenyl_acetate E -111.323484185353
  C       4.465156     -0.306170      0.377687
  C       3.237034     -1.157594      0.354576
  O       3.065496     -2.085562     -0.387003
  O       2.333967     -0.748115      1.251597
  C       1.063133     -1.415790      1.244002
  C       0.145318     -0.812146      0.240349
  C      -0.385963     -1.502380     -0.759406
  C      -1.346595     -0.823644     -1.691830
  C      -1.483993      0.651712     -1.330037
  C      -0.077699      1.226717     -1.086269
  C      -0.207227      0.650368      0.337240
  C      -1.748165      0.831664      0.190344
  C      -2.188199      2.248035      0.527592
  C      -2.680665     -0.132971      0.892775
  H       4.333372      0.498909     -0.343154
  H       5.318929     -0.901653      0.072460
  H       4.625704      0.130511      1.357936
  H       0.682178     -1.276911      2.254304
  H       1.213430     -2.475036      1.054086
  H      -0.142575     -2.546361     -0.913434
  H      -2.318375     -1.323520     -1.655294
  H      -0.995596     -0.922728     -2.721969
  H      -2.147610      1.175747     -2.019122
  H       0.733258      0.829740     -1.694538
  H      -0.051585      2.311189     -1.113961
  H       0.296848      1.154289      1.161037
  H      -2.155910      2.407211      1.606067
  H      -3.216401      2.410093      0.201593
  H      -1.572138      3.013805      0.063625
  H      -2.418614     -1.174308      0.731324
  H      -2.671897      0.048760      1.968600
  H      -3.704613      0.016139      0.547074
32
Coordinates from ORCA-job ./output/myrtenyl_acetate/myrtenyl_acetate E -111.323505588383
  C       4.473359     -0.317188      0.375595
  C       3.244673     -1.167355      0.359420
  O       3.076846     -2.108405     -0.366778
  O       2.336894     -0.741155      1.243197
  C       1.065912     -1.408341      1.243565
  C       0.146011     -0.806259      0.240683
  C      -0.381791     -1.498386     -0.759659
  C      -1.344188     -0.822810     -1.692344
  C      -1.487134      0.652396     -1.330305
  C      -0.083082      1.232422     -1.085620
  C      -0.211021      0.655260      0.337398
  C      -1.752287      0.832141      0.189682
  C      -2.196284      2.247681      0.525862
  C      -2.683610     -0.133587      0.892565
  H       4.328449      0.502745     -0.325820
  H       5.321826     -0.906462      0.045188
  H       4.649768      0.101264      1.361265
  H       0.688732     -1.268086      2.255068
  H       1.215558     -2.467710      1.054104
  H      -0.135330     -2.541815     -0.912523
  H      -2.314350     -1.325827     -1.655587
  H      -0.993189     -0.919570     -2.722682
  H      -2.151629      1.173580     -2.020688
  H       0.729893      0.840415     -1.694426
  H      -0.061382      2.317202     -1.111937
  H       0.292344      1.159985      1.161157
  H      -2.166558      2.407247      1.604346
  H      -3.224143      2.407376      0.197592
  H      -1.580877      3.014716      0.062857
  H      -2.420284     -1.174796      0.732818
  H      -2.675556      0.049630      1.968157
  H      -3.707569      0.013690      0.546099
32
Coordinates from ORCA-job ./output/myrtenyl_acetate/myrtenyl_acetate E -111.323540554257
  C       4.483798     -0.334102      0.371128
  C       3.252926     -1.181406      0.365083
  O       3.087223     -2.139115     -0.339622
  O       2.341660     -0.731112      1.232584
  C       1.069214     -1.395067      1.245916
  C       0.146960     -0.796502      0.243090
  C      -0.376919     -1.491917     -0.757319
  C      -1.340318     -0.821208     -1.692219
  C      -1.489861      0.653664     -1.331572
  C      -0.088524      1.240025     -1.085880
  C      -0.215657      0.663542      0.337563
  C      -1.757530      0.833245      0.187902
  C      -2.209192      2.246920      0.523035
  C      -2.685234     -0.136453      0.890117
  H       4.313562      0.519881     -0.282420
  H       5.318145     -0.908339     -0.015918
  H       4.696484      0.039389      1.367959
  H       0.698159     -1.248499      2.258776
  H       1.214771     -2.455693      1.060786
  H      -0.126462     -2.534778     -0.907850
  H      -2.308576     -1.327868     -1.656001
  H      -0.987682     -0.916530     -2.722137
  H      -2.155542      1.171083     -2.023686
  H       0.727122      0.852649     -1.694109
  H      -0.072055      2.324845     -1.112327
  H       0.285457      1.170970      1.161087
  H      -2.183201      2.406578      1.601573
  H      -3.236773      2.401830      0.191667
  H      -1.596045      3.016753      0.061758
  H      -2.417743     -1.176783      0.731233
  H      -2.678804      0.047368      1.965610
  H      -3.709361      0.006631      0.542443
32
Coordinates from ORCA-job ./output/myrtenyl_acetate/myrtenyl_acetate E -111.323584507567
  C       4.490772     -0.346234      0.365792
  C       3.258097     -1.192270      0.367533
  O       3.092472     -2.162567     -0.319745
  O       2.346306     -0.723397      1.225248
  C       1.072062     -1.383667      1.250777
  C       0.147794     -0.789782      0.247248
  C      -0.372362     -1.488334     -0.753457
  C      -1.336047     -0.822394     -1.691291
  C      -1.490672      0.652362     -1.333403
  C      -0.091655      1.244143     -1.086118
  C      -0.219602      0.669058      0.338467
  C      -1.762052      0.834259      0.185545
  C      -2.218380      2.247418      0.517304
  C      -2.688138     -0.137289      0.887538
  H       4.285080      0.561389     -0.199478
  H       5.299382     -0.887476     -0.112226
  H       4.761407     -0.054002      1.376145
  H       0.706624     -1.228231      2.264477
  H       1.212238     -2.446329      1.072589
  H      -0.117934     -2.530618     -0.902033
  H      -2.302773     -1.332089     -1.656289
  H      -0.980524     -0.918371     -2.720346
  H      -2.156972      1.166762     -2.027473
  H       0.726681      0.858868     -1.692295
  H      -0.079413      2.329048     -1.114109
  H       0.278234      1.180259      1.161890
  H      -2.195473      2.408751      1.595750
  H      -3.245501      2.399154      0.182756
  H      -1.605857      3.018039      0.056325
  H      -2.418239     -1.177184      0.729711
  H      -2.683333      0.047300      1.963027
  H      -3.712220      0.003423      0.538390
32
Coordinates from ORCA-job ./output/myrtenyl_acetate/myrtenyl_acetate E -111.323621966430
  C       4.489180     -0.345072      0.364520
  C       3.253871     -1.188579      0.361822
  O       3.083017     -2.155187     -0.328865
  O       2.347348     -0.722031      1.227695
  C       1.072185     -1.380749      1.256109
  C       0.147662     -0.790464      0.251005
  C      -0.372756     -1.490667     -0.748691
  C      -1.335162     -0.826370     -1.689123
  C      -1.488435      0.648939     -1.335234
  C      -0.089099      1.240334     -1.087846
  C      -0.219420      0.668510      0.338528
  C      -1.761972      0.834670      0.183405
  C      -2.217473      2.248807      0.511740
  C      -2.688493     -0.135972      0.885901
  H       4.262221      0.607389     -0.111552
  H       5.271842     -0.849593     -0.190621
  H       4.808692     -0.135545      1.381522
  H       0.707666     -1.218918      2.269253
  H       1.209613     -2.444929      1.084006
  H      -0.118040     -2.533128     -0.895953
  H      -2.302213     -1.335517     -1.654819
  H      -0.977345     -0.926437     -2.717159
  H      -2.154266      1.163150     -2.030125
  H       0.729522      0.850977     -1.691190
  H      -0.075796      2.325052     -1.119508
  H       0.276164      1.182771      1.161563
  H      -2.194498      2.412412      1.589940
  H      -3.244540      2.400431      0.176721
  H      -1.604387      3.018002      0.049156
  H      -2.418328     -1.175904      0.728456
  H      -2.684261      0.048977      1.961412
  H      -3.712496      0.004640      0.536181
32
Coordinates from ORCA-job ./output/myrtenyl_acetate/myrtenyl_acetate E -111.323649292662
  C       4.480282     -0.331640      0.367627
  C       3.243647     -1.173481      0.352312
  O       3.065661     -2.124838     -0.357040
  O       2.344772     -0.726266      1.237609
  C       1.070022     -1.386396      1.260268
  C       0.146663     -0.797996      0.253138
  C      -0.376805     -1.498555     -0.744621
  C      -1.337381     -0.833176     -1.686519
  C      -1.484625      0.643412     -1.336933
  C      -0.082928      1.229846     -1.091031
  C      -0.215822      0.662413      0.337185
  C      -1.757910      0.834407      0.181512
  C      -2.207039      2.251144      0.505992
  C      -2.687529     -0.131396      0.886391
  H       4.240051      0.656969     -0.019113
  H       5.238908     -0.793981     -0.253724
  H       4.841019     -0.205946      1.385012
  H       0.701995     -1.222700      2.271891
  H       1.208744     -2.451057      1.091317
  H      -0.124824     -2.541781     -0.891056
  H      -2.306164     -1.339053     -1.651734
  H      -0.979032     -0.939107     -2.713867
  H      -2.149063      1.159287     -2.032003
  H       0.733829      0.832693     -1.691851
  H      -0.064593      2.314307     -1.127231
  H       0.279655      1.178111      1.159433
  H      -2.181381      2.417925      1.583727
  H      -3.234262      2.405848      0.172695
  H      -1.591828      3.016550      0.039971
  H      -2.420133     -1.172253      0.730339
  H      -2.682585      0.055151      1.961666
  H      -3.711341      0.011557      0.536890
32
Coordinates from ORCA-job ./output/myrtenyl_acetate/myrtenyl_acetate E -111.323658047593
  C       4.473664     -0.320680      0.372291
  C       3.237574     -1.162342      0.348089
  O       3.056885     -2.103292     -0.374256
  O       2.341921     -0.729874      1.244084
  C       1.068151     -1.392146      1.260663
  C       0.145812     -0.803720      0.252531
  C      -0.380670     -1.504443     -0.743205
  C      -1.340530     -0.837731     -1.685048
  C      -1.483002      0.639962     -1.337941
  C      -0.079289      1.222299     -1.094378
  C      -0.212548      0.657961      0.334762
  C      -1.754138      0.834105      0.180387
  C      -2.198529      2.252636      0.502842
  C      -2.685816     -0.127667      0.887919
  H       4.227440      0.684457      0.035963
  H       5.219644     -0.756252     -0.282656
  H       4.855172     -0.242518      1.387054
  H       0.696705     -1.230447      2.271314
  H       1.209896     -2.456294      1.091042
  H      -0.131636     -2.548447     -0.888708
  H      -2.310732     -1.340769     -1.648468
  H      -0.983781     -0.946970     -2.712549
  H      -2.146628      1.156665     -2.033039
  H       0.735427      0.820598     -1.694853
  H      -0.057082      2.306577     -1.133062
  H       0.284783      1.173244      1.156060
  H      -2.170493      2.421489      1.580179
  H      -3.225983      2.409652      0.171422
  H      -1.582144      3.015497      0.034268
  H      -2.420836     -1.169394      0.733648
  H      -2.679641      0.060947      1.962782
  H      -3.709595      0.016892      0.539112
32
Coordinates from ORCA-job ./output/myrtenyl_acetate/myrtenyl_acetate E -111.323661262498
  C       4.471302     -0.314267      0.377848
  C       3.236179     -1.156442      0.347531
  O       3.056855     -2.093231     -0.380657
  O       2.339855     -0.731691      1.246261
  C       1.067145     -1.396083      1.258255
  C       0.145291     -0.806887      0.250011
  C      -0.383762     -1.507797     -0.744005
  C      -1.344166     -0.840225     -1.684666
  C      -1.483825      0.638169     -1.338530
  C      -0.078793      1.218320     -1.097841
  C      -0.210485      0.655608      0.331752
  C      -1.751858      0.833962      0.179919
  C      -2.193397      2.253548      0.501639
  C      -2.684191     -0.125134      0.890194
  H       4.222978      0.697240      0.063363
  H       5.213229     -0.736995     -0.289894
  H       4.859781     -0.257456      1.391484
  H       0.693302     -1.237603      2.268492
  H       1.211804     -2.459461      1.086431
  H      -0.136782     -2.552329     -0.888932
  H      -2.315184     -1.341534     -1.645720
  H      -0.989972     -0.950634     -2.712860
  H      -2.147629      1.154817     -2.033394
  H       0.734216      0.815082     -1.699537
  H      -0.054675      2.302548     -1.137437
  H       0.289529      1.169811      1.152014
  H      -2.163174      2.423699      1.578686
  H      -3.221246      2.411794      0.172126
  H      -1.576833      3.015007      0.031043
  H      -2.420827     -1.167509      0.737622
  H      -2.676496      0.065552      1.964646
  H      -3.708170      0.020121      0.542406
32
Coordinates from ORCA-job ./output/myrtenyl_acetate/myrtenyl_acetate E -111.323662029060
  C       4.471931     -0.312425      0.382216
  C       3.237140     -1.154764      0.348453
  O       3.060007     -2.091122     -0.380903
  O       2.338936     -0.731760      1.245801
  C       1.066924     -1.397404      1.255580
  C       0.145187     -0.807596      0.247563
  C      -0.385477     -1.508767     -0.745348
  C      -1.346939     -0.841070     -1.684756
  C      -1.485510      0.637614     -1.338866
  C      -0.079879      1.217221     -1.100541
  C      -0.209643      0.655191      0.329341
  C      -1.751066      0.834014      0.179801
  C      -2.191762      2.253937      0.501532
  C      -2.682907     -0.124180      0.891969
  H       4.223663      0.700853      0.073615
  H       5.213713     -0.731442     -0.287984
  H       4.860904     -0.261946      1.396031
  H       0.691977     -1.241173      2.265761
  H       1.213102     -2.460277      1.081979
  H      -0.139392     -2.553549     -0.889978
  H      -2.318208     -1.341737     -1.643824
  H      -0.994858     -0.951567     -2.713639
  H      -2.149980      1.153814     -2.033395
  H       0.732117      0.814047     -1.703633
  H      -0.055379      2.301454     -1.140328
  H       0.292430      1.168720      1.148736
  H      -2.159976      2.424712      1.578418
  H      -3.220041      2.412264      0.173438
  H      -1.575742      3.015021      0.029618
  H      -2.420035     -1.166822      0.740344
  H      -2.674053      0.067779      1.966169
  H      -3.707181      0.020959      0.545076
32
Coordinates from ORCA-job ./output/myrtenyl_acetate/myrtenyl_acetate E -111.323662107348
  C       4.472817     -0.312299      0.384245
  C       3.237869     -1.154486      0.348967
  O       3.061727     -2.090982     -0.380491
  O       2.338724     -0.731447      1.245240
  C       1.067004     -1.397494      1.254367
  C       0.145215     -0.807528      0.246513
  C      -0.386111     -1.508894     -0.745932
  C      -1.348167     -0.841361     -1.684816
  C      -1.486491      0.637401     -1.339041
  C      -0.080688      1.217067     -1.101841
  C      -0.209450      0.655300      0.328250
  C      -1.750964      0.834100      0.179751
  C      -2.191548      2.254101      0.501482
  C      -2.682357     -0.123945      0.892733
  H       4.224736      0.702022      0.078970
  H       5.214132     -0.729624     -0.287542
  H       4.862507     -0.265055      1.397966
  H       0.691715     -1.242080      2.264554
  H       1.213489     -2.460218      1.080096
  H      -0.140172     -2.553737     -0.890465
  H      -2.319460     -1.341928     -1.643008
  H      -0.996902     -0.951830     -2.713986
  H      -2.151403      1.153347     -2.033352
  H       0.730929      0.814081     -1.705572
  H      -0.056292      2.301313     -1.141708
  H       0.293454      1.168792      1.147154
  H      -2.158946      2.425205      1.578290
  H      -3.220075      2.412225      0.174067
  H      -1.575946      3.015079      0.028839
  H      -2.419525     -1.166659      0.741471
  H      -2.673025      0.068535      1.966841
  H      -3.706792      0.020996      0.546205
