32
Coordinates from ORCA-job ./output/myrtenyl_acetate/myrtenyl_acetate E -111.323662107348
  C           4.47281665625307     -0.31229888022748      0.38424515759829
  C           3.23786948806614     -1.15448598758912      0.34896742532917
  O           3.06172727815478     -2.09098223065468     -0.38049062218601
  O           2.33872400246017     -0.73144682749303      1.24523966991931
  C           1.06700386462538     -1.39749378088215      1.25436714978156
  C           0.14521463977518     -0.80752765986549      0.24651349220346
  C          -0.38611089989859     -1.50889397093329     -0.74593192800086
  C          -1.34816716358630     -0.84136091968707     -1.68481562800595
  C          -1.48649073300085      0.63740097252068     -1.33904116153305
  C          -0.08068772644252      1.21706734270613     -1.10184132347380
  C          -0.20945043101839      0.65530029419200      0.32825016082495
  C          -1.75096406088320      0.83410002285333      0.17975140452434
  C          -2.19154829800067      2.25410127962404      0.50148157256340
  C          -2.68235715776358     -0.12394533330011      0.89273345861594
  H           4.22473629787863      0.70202152388133      0.07897016762756
  H           5.21413192717291     -0.72962351566841     -0.28754249867905
  H           4.86250688910644     -0.26505496338158      1.39796626224026
  H           0.69171473141336     -1.24208018757655      2.26455434936284
  H           1.21348928529755     -2.46021785607975      1.08009607433508
  H          -0.14017201456038     -2.55373688708765     -0.89046474160982
  H          -2.31946046982754     -1.34192777580421     -1.64300807031084
  H          -0.99690217065399     -0.95182965251443     -2.71398630691642
  H          -2.15140252796685      1.15334691858947     -2.03335170973080
  H           0.73092859819561      0.81408055082212     -1.70557157288308
  H          -0.05629219907737      2.30131294743390     -1.14170825295910
  H           0.29345371999505      1.16879174495276      1.14715426009992
  H          -2.15894598538088      2.42520506419089      1.57829007267501
  H          -3.22007499005947      2.41222534119234      0.17406655926957
  H          -1.57594563902527      3.01507947565588      0.02883939467369
  H          -2.41952538217179     -1.16665915131396      0.74147075899178
  H          -2.67302522282541      0.06853475869584      1.96684110036230
  H          -3.70679230625124      0.02099634274826      0.54620532529035
