39
Coordinates from ORCA-job ./output/alpha_bulnesene/alpha_bulnesene E -99.937317580586
  C          -1.86971752037811     -2.87972995985019      0.30521125618993
  C          -1.84999675125855     -1.42824624641524      0.73234628665124
  C          -3.17418956910574     -0.70199054040155      0.55285779667705
  C          -2.79230017489504      0.76775582330544      0.63999003359149
  C          -1.45422293569758      0.82255072768923     -0.05453810343237
  C          -0.90962982828302      1.87986230867943     -0.64596940095230
  C           0.39844604103076      1.78368795502624     -1.38832572591916
  C           1.60319918324696      1.38062688036511     -0.54503601302932
  C           1.69680583601243     -0.11320500560290     -0.27059932899441
  C           0.54971473528036     -0.63767273486528      0.59125125478499
  C          -0.83745209483423     -0.56165735969481     -0.03281993974732
  C           3.01456934765486     -0.53286846207432      0.33977123377728
  C           3.73990659390215      0.25298622603832      1.12423463159816
  C           3.45754891821007     -1.92566827215154      0.01279208505360
  C          -1.53541922237799      3.23994471387726     -0.63492529472671
  H          -0.89414231844185     -3.35013210680135      0.42941471306787
  H          -2.58742221382008     -3.45461544904162      0.89071502661766
  H          -2.15032122882145     -2.96724582613915     -0.74570928913039
  H          -1.58617733518517     -1.37896705493552      1.79499428722458
  H          -3.92391005971772     -0.99991964449315      1.28569945269826
  H          -3.57851456288696     -0.92039317118646     -0.43932898919438
  H          -2.69091915625859      1.06285608665229      1.68864046558851
  H          -3.53492174369855      1.42374627154251      0.19113572058075
  H           0.29601206578391      1.08008223549899     -2.22084679666778
  H           0.60777966699028      2.75169229993543     -1.84497919102503
  H           1.57774345104312      1.93539321496716      0.39514379854884
  H           2.51395057903248      1.68428832059692     -1.06374639219944
  H           1.62772287835638     -0.62062282699785     -1.24058226392814
  H           0.75187521871683     -1.68202117708946      0.83824410448546
  H           0.54586978765085     -0.09512742065950      1.54014219251013
  H          -0.77374275276823     -0.93594348519356     -1.06293963630991
  H           3.44517172904670      1.26616097241111      1.35929459726139
  H           4.66583809506242     -0.09835692123767      1.56074217220999
  H           4.36037694594263     -2.19779452048011      0.55504148580568
  H           3.65891871333649     -2.01687222330267     -1.05570550113230
  H           2.68428234147682     -2.65598961278572      0.25210624407083
  H          -1.74454575847926      3.57755495422197     -1.65218881306499
  H          -2.46018279499880      3.27776303116826     -0.06672291007009
  H          -0.84800010586962      3.96808999942395     -0.19932524946967
