! wB97X-3c OPT FREQ TightSCF
%pal
  nprocs 40
end
* xyz 0 1
C     -2.111571    -2.836219     0.297608
C     -1.901862    -1.408423     0.814668
C     -3.194324    -0.589466     0.787129
C     -2.769100     0.856556     0.591044
C     -1.434803     0.770548    -0.083196
C     -0.848146     1.815383    -0.721291
C      0.425540     1.627069    -1.519868
C      1.620532     1.272099    -0.626708
C      1.672778    -0.228475    -0.270871
C      0.520029    -0.660893     0.659633
C     -0.867926    -0.622351    -0.021070
C      3.018488    -0.575344     0.357167
C      3.407110    -0.021997     1.519066
C      3.942663    -1.554518    -0.320068
C     -1.482685     3.187494    -0.682852
H     -1.157216    -3.401655     0.350256
H     -2.864864    -3.358722     0.924729
H     -2.465202    -2.827667    -0.755794
H     -1.572276    -1.468517     1.877895
H     -3.772892    -0.713149     1.728498
H     -3.833733    -0.897203    -0.070888
H     -2.660483     1.371723     1.569869
H     -3.517621     1.383939    -0.038499
H      0.270039     0.852453    -2.301762
H      0.674246     2.562104    -2.066051
H      1.607425     1.899575     0.291722
H      2.547309     1.529444    -1.186506
H      1.575515    -0.805398    -1.216804
H      0.720735    -1.708743     0.977593
H      0.506445    -0.035167     1.579749
H     -0.810452    -1.035442    -1.053131
H      2.776741     0.687559     2.044672
H      4.366740    -0.274254     1.960736
H      4.132518    -2.417513     0.352745
H      4.907858    -1.057901    -0.555094
H      3.512274    -1.941335    -1.266805
H     -2.455927     3.170873    -1.216234
H     -1.643036     3.500702     0.370436
H     -0.840862     3.952833    -1.166243
*
