! wB97X-3c OPT FREQ TightSCF
%pal
  nprocs 40
end
* xyz 0 1
C     -3.823918     1.070991     0.772344
C     -3.005064     0.026352     0.002481
C     -3.657574    -0.243305    -1.362125
C     -1.540896     0.501129    -0.139608
C     -0.609430    -0.596804    -0.686415
C      0.869844    -0.165162    -0.688685
C      1.561668    -0.280857     0.694899
C      1.874082    -1.742948     1.060248
C      2.827069     0.607429     0.777309
C      3.930596     0.236835    -0.226038
O      5.031052     1.090108    -0.065886
H     -4.869229     0.719193     0.906397
H     -3.388047     1.235054     1.780993
H     -3.837740     2.038388     0.225343
H     -3.023421    -0.916556     0.593043
H     -3.583289     0.651240    -2.017073
H     -4.730433    -0.500641    -1.231276
H     -3.172742    -1.104716    -1.865507
H     -1.497119     1.390382    -0.806783
H     -1.177310     0.818378     0.860122
H     -0.893191    -0.811845    -1.738310
H     -0.742499    -1.535487    -0.110055
H      1.416189    -0.796053    -1.423592
H      0.933558     0.881124    -1.061427
H      0.871531     0.104708     1.474731
H      2.475381    -1.787974     1.993186
H      2.435487    -2.249395     0.247281
H      0.937014    -2.307627     1.242713
H      2.532168     1.666952     0.611468
H      3.245740     0.549059     1.806133
H      4.273559    -0.802286    -0.044331
H      3.553361     0.298669    -1.271118
H      4.783603     1.955666    -0.484859
*
