31
Coordinates from ORCA-job ./output/geranyl_formate/geranyl_formate E -105.620299306666
  C           3.27729167881640     -0.54779071282455      1.61860426451370
  C           2.49367332713526      0.17710144394853      0.56934781957909
  C           1.19095061946355      0.43585733273852      0.63712204134824
  C           0.24160745567580      0.07434618237457      1.73498275824933
  C          -0.69034850899039     -1.09093616294670      1.38722637486432
  C          -1.46389918745421     -0.85423109174420      0.11512270542841
  C          -2.55252452934867     -0.09110298785393      0.14745577146880
  C          -3.40360565011488      0.30070444333381     -1.00668681719920
  O          -3.37510469492072      1.73191854338880     -1.20111102214343
  C          -2.33440907283750      2.22570906340269     -1.85316840596305
  O          -1.44139296943860      1.59354938915405     -2.33849839031081
  C          -0.90403381130005     -1.50198376289076     -1.10973383929703
  C           3.29970569947168      0.61237227052405     -0.61615579848706
  H           4.07039356099814      0.09123228364867      2.01098979630264
  H           2.67089517432262     -0.88501968266675      2.45367510580561
  H           3.76625090344873     -1.42217846831039      1.18569458276011
  H           0.74293784307187      0.95711574657002     -0.20383007373850
  H          -0.37773416506204      0.94672771726865      1.95543622536694
  H           0.77286113221881     -0.16500311749783      2.65478106076356
  H          -1.38142838706003     -1.24416545143931      2.21674013054650
  H          -0.09946792182722     -2.00340350354997      1.28999063732840
  H          -2.86866327402463      0.31780669277875      1.10240507635705
  H          -4.45238071911541      0.08967398798987     -0.81293628580604
  H          -3.11074994829697     -0.18392209837196     -1.93196737939526
  H          -2.40868116643208      3.31756409330314     -1.89645131671121
  H          -1.07334079238338     -2.57930015967977     -1.06409811131576
  H           0.17405174214458     -1.35130535621165     -1.14578959271033
  H          -1.32502696420052     -1.11776737415404     -2.03242944192776
  H           2.68607792950361      1.12643821096846     -1.35273423620058
  H           3.77189365634826     -0.24441225169135     -1.10046857389990
  H           4.10420204018797      1.28440678044058     -0.31141106557677
