! wB97X-3c OPT FREQ TightSCF
%pal
  nprocs 40
end
* xyz 0 1
C      3.110644    -0.773839     1.768662
C      2.672150    -0.036064     0.528083
C      1.474309     0.585886     0.446472
C      0.414657     0.546237     1.522623
C     -0.477591    -0.697421     1.399034
C     -1.222248    -0.730091     0.079861
C     -2.267184     0.104129    -0.110711
C     -3.062670     0.152845    -1.390137
O     -4.083791     1.145292    -1.309146
C     -3.820076     2.518499    -1.338374
O     -2.642608     2.953452    -1.450637
C     -0.779900    -1.694499    -0.995167
C      3.638810     0.048672    -0.624627
H      3.139848    -0.080627     2.635075
H      2.420919    -1.614234     1.984592
H      4.129794    -1.195230     1.636692
H      1.223733     1.137886    -0.455748
H     -0.214820     1.457690     1.432745
H      0.873238     0.580993     2.532839
H     -1.210841    -0.703510     2.234905
H      0.138709    -1.611949     1.520553
H     -2.556324     0.777988     0.692104
H     -3.544906    -0.833207    -1.555600
H     -2.397399     0.370705    -2.253598
H     -4.641210     3.218028    -1.264701
H     -1.603914    -2.397984    -1.236980
H      0.099061    -2.288991    -0.669385
H     -0.489167    -1.135393    -1.909082
H      3.183220     0.521414    -1.521162
H      3.971603    -0.972429    -0.906264
H      4.523955     0.645754    -0.320817
*
