! wB97X-3c OPT FREQ TightSCF
%pal
  nprocs 40
end
* xyz 0 1
C      2.911777     1.254297     1.613107
C      2.657491     0.595597     0.252968
C      3.038029    -0.898526     0.259825
C      1.723821    -1.684325     0.167766
C      0.690533    -0.644041    -0.098315
C      1.202862     0.587931    -0.078846
C      0.340325     1.828229    -0.254517
C     -1.117505     1.452942    -0.661120
C     -1.110555     0.893029    -2.102080
C     -0.925931    -0.628663    -1.960111
C     -0.786088    -0.883476    -0.442367
C     -1.640536     0.262334     0.189104
C     -1.429846     0.443882     1.720075
C     -3.172924     0.087062    -0.025997
C     -1.242853    -2.303681    -0.052082
H      2.322588     0.751770     2.410729
H      3.990919     1.189722     1.867706
H      2.631151     2.328061     1.577574
H      3.221318     1.138000    -0.537296
H      3.606679    -1.192847     1.169621
H      3.667582    -1.123775    -0.629195
H      1.761840    -2.419595    -0.664359
H      1.503270    -2.197369     1.128329
H      0.316703     2.394975     0.699838
H      0.798178     2.495193    -1.015920
H     -1.772283     2.348897    -0.582902
H     -0.303866     1.334866    -2.727140
H     -2.079914     1.114639    -2.599515
H     -0.034113    -0.978023    -2.527760
H     -1.811859    -1.155190    -2.378397
H     -1.875529    -0.408597     2.275241
H     -1.926524     1.377073     2.061913
H     -0.367316     0.498755     2.025072
H     -3.443713    -0.122872    -1.079480
H     -3.707789     1.012552     0.277842
H     -3.568170    -0.745271     0.594072
H     -0.619533    -3.065639    -0.565731
H     -2.295150    -2.486341    -0.352187
H     -1.153067    -2.451574     1.044536
*
