39
Coordinates from ORCA-job ./output/beta_patchoulene/beta_patchoulene E -99.955866820145
  C       2.911777      1.254297      1.613107
  C       2.657491      0.595597      0.252968
  C       3.038029     -0.898526      0.259825
  C       1.723821     -1.684325      0.167766
  C       0.690533     -0.644041     -0.098315
  C       1.202862      0.587931     -0.078846
  C       0.340325      1.828229     -0.254517
  C      -1.117505      1.452942     -0.661120
  C      -1.110555      0.893029     -2.102080
  C      -0.925931     -0.628663     -1.960111
  C      -0.786088     -0.883476     -0.442367
  C      -1.640536      0.262334      0.189104
  C      -1.429846      0.443882      1.720075
  C      -3.172924      0.087062     -0.025997
  C      -1.242853     -2.303681     -0.052082
  H       2.322588      0.751770      2.410729
  H       3.990919      1.189722      1.867706
  H       2.631151      2.328061      1.577574
  H       3.221318      1.138000     -0.537296
  H       3.606679     -1.192847      1.169621
  H       3.667582     -1.123775     -0.629195
  H       1.761840     -2.419595     -0.664359
  H       1.503270     -2.197369      1.128329
  H       0.316703      2.394975      0.699838
  H       0.798178      2.495193     -1.015920
  H      -1.772283      2.348897     -0.582902
  H      -0.303866      1.334866     -2.727140
  H      -2.079914      1.114639     -2.599515
  H      -0.034113     -0.978023     -2.527760
  H      -1.811859     -1.155190     -2.378397
  H      -1.875529     -0.408597      2.275241
  H      -1.926524      1.377073      2.061913
  H      -0.367316      0.498755      2.025072
  H      -3.443713     -0.122872     -1.079480
  H      -3.707789      1.012552      0.277842
  H      -3.568170     -0.745271      0.594072
  H      -0.619533     -3.065639     -0.565731
  H      -2.295150     -2.486341     -0.352187
  H      -1.153067     -2.451574      1.044536
39
Coordinates from ORCA-job ./output/beta_patchoulene/beta_patchoulene E -99.967562990388
  C       2.915712      1.254563      1.616017
  C       2.640980      0.605289      0.261668
  C       3.023278     -0.888635      0.232053
  C       1.709988     -1.685968      0.140937
  C       0.671473     -0.638730     -0.106048
  C       1.178409      0.589279     -0.067620
  C       0.330892      1.814496     -0.230203
  C      -1.097308      1.442353     -0.651467
  C      -1.107626      0.883605     -2.084083
  C      -0.946931     -0.642597     -1.939949
  C      -0.788915     -0.887219     -0.429892
  C      -1.627086      0.262855      0.186478
  C      -1.440516      0.444731      1.692831
  C      -3.127925      0.089939     -0.061263
  C      -1.233212     -2.285877     -0.018445
  H       2.355298      0.747627      2.402827
  H       3.978545      1.198506      1.856445
  H       2.630782      2.307547      1.609458
  H       3.192610      1.155738     -0.507753
  H       3.596706     -1.179121      1.111940
  H       3.642209     -1.094871     -0.641637
  H       1.742261     -2.410439     -0.675835
  H       1.499675     -2.220595      1.070957
  H       0.306675      2.368822      0.713665
  H       0.778379      2.481028     -0.972830
  H      -1.737002      2.323458     -0.566314
  H      -0.315521      1.315835     -2.695220
  H      -2.053361      1.120539     -2.573183
  H      -0.084432     -1.009501     -2.496176
  H      -1.825534     -1.161332     -2.330196
  H      -1.888136     -0.389921      2.234638
  H      -1.936289      1.360077      2.020908
  H      -0.397605      0.502980      1.994867
  H      -3.366847     -0.114119     -1.104554
  H      -3.655749      1.000354      0.226297
  H      -3.531274     -0.726822      0.537269
  H      -0.626284     -3.042407     -0.516090
  H      -2.269667     -2.466424     -0.299552
  H      -1.136652     -2.425042      1.059057
39
Coordinates from ORCA-job ./output/beta_patchoulene/beta_patchoulene E -99.968464348118
  C       2.927017      1.241240      1.624397
  C       2.635525      0.613857      0.266543
  C       3.023645     -0.877148      0.194104
  C       1.712969     -1.680442      0.111096
  C       0.665208     -0.631201     -0.107832
  C       1.167823      0.595501     -0.051980
  C       0.324596      1.814872     -0.208722
  C      -1.086513      1.437391     -0.652247
  C      -1.083387      0.869033     -2.081119
  C      -0.958927     -0.660424     -1.927897
  C      -0.792663     -0.891146     -0.415773
  C      -1.632248      0.267281      0.186457
  C      -1.467364      0.454118      1.687595
  C      -3.125232      0.096818     -0.084786
  C      -1.226018     -2.280931      0.016881
  H       2.391430      0.710353      2.411561
  H       3.992488      1.197865      1.847531
  H       2.625487      2.287562      1.651663
  H       3.177789      1.183793     -0.492949
  H       3.618400     -1.176473      1.055233
  H       3.629819     -1.063140     -0.690478
  H       1.737036     -2.401692     -0.706804
  H       1.517638     -2.238711      1.028360
  H       0.291518      2.364981      0.735811
  H       0.772846      2.491485     -0.940657
  H      -1.727906      2.316727     -0.577196
  H      -0.273158      1.286801     -2.675932
  H      -2.009852      1.125719     -2.591642
  H      -0.108653     -1.056347     -2.479860
  H      -1.847438     -1.168585     -2.302925
  H      -1.916965     -0.378908      2.227228
  H      -1.975577      1.363801      2.008096
  H      -0.428474      0.522788      1.995684
  H      -3.348777     -0.101860     -1.129789
  H      -3.655042      1.006190      0.198013
  H      -3.540391     -0.719210      0.503861
  H      -0.619534     -3.042372     -0.470436
  H      -2.262223     -2.468611     -0.254715
  H      -1.124888     -2.410975      1.093623
39
Coordinates from ORCA-job ./output/beta_patchoulene/beta_patchoulene E -99.968739783064
  C       2.932450      1.226061      1.634581
  C       2.629979      0.621245      0.271178
  C       3.022474     -0.865903      0.162406
  C       1.714341     -1.672045      0.092983
  C       0.659497     -0.623396     -0.103972
  C       1.159483      0.603051     -0.036982
  C       0.316599      1.820419     -0.195477
  C      -1.082945      1.433885     -0.659129
  C      -1.056221      0.854057     -2.084084
  C      -0.960538     -0.675345     -1.922105
  C      -0.796680     -0.894498     -0.406986
  C      -1.638692      0.270859      0.184025
  C      -1.479081      0.460921      1.683628
  C      -3.131326      0.103638     -0.093056
  C      -1.224274     -2.278821      0.040682
  H       2.419080      0.671175      2.421187
  H       4.001619      1.196664      1.843548
  H       2.613324      2.266264      1.692319
  H       3.164582      1.209370     -0.480619
  H       3.640617     -1.174096      1.004763
  H       3.612138     -1.034529     -0.737107
  H       1.729048     -2.394477     -0.725010
  H       1.533066     -2.245551      1.004455
  H       0.272549      2.372492      0.747791
  H       0.767827      2.503425     -0.920705
  H      -1.731541      2.309974     -0.598462
  H      -0.223591      1.258129     -2.658084
  H      -1.962552      1.125636     -2.623032
  H      -0.116661     -1.095056     -2.467825
  H      -1.856321     -1.174903     -2.290930
  H      -1.930680     -0.370205      2.225020
  H      -1.990890      1.369420      2.003326
  H      -0.439651      0.531381      1.990970
  H      -3.355334     -0.082164     -1.140014
  H      -3.661082      1.010608      0.199374
  H      -3.550552     -0.717431      0.486488
  H      -0.617179     -3.045856     -0.437962
  H      -2.261381     -2.472135     -0.225623
  H      -1.121501     -2.402262      1.118441
39
Coordinates from ORCA-job ./output/beta_patchoulene/beta_patchoulene E -99.968832351193
  C       2.939931      1.212890      1.638037
  C       2.630532      0.625935      0.269080
  C       3.024153     -0.858416      0.136890
  C       1.716657     -1.664302      0.087858
  C       0.658540     -0.616916     -0.097575
  C       1.158549      0.609455     -0.029723
  C       0.313417      1.826275     -0.187568
  C      -1.082134      1.433177     -0.660408
  C      -1.039219      0.844960     -2.082346
  C      -0.960681     -0.683286     -1.913799
  C      -0.797619     -0.894851     -0.397582
  C      -1.644457      0.273089      0.183928
  C      -1.496751      0.463310      1.685827
  C      -3.134783      0.107066     -0.106246
  C      -1.221851     -2.276898      0.058414
  H       2.442243      0.640578      2.423033
  H       4.011745      1.194071      1.837046
  H       2.607929      2.248187      1.716792
  H       3.159150      1.225999     -0.478261
  H       3.664120     -1.172887      0.961198
  H       3.593538     -1.016405     -0.778133
  H       1.720174     -2.392086     -0.726399
  H       1.547419     -2.239094      1.001798
  H       0.263409      2.380062      0.754785
  H       0.765845      2.512463     -0.909710
  H      -1.736539      2.306136     -0.610762
  H      -0.190704      1.238159     -2.641366
  H      -1.931650      1.124914     -2.641075
  H      -0.122645     -1.118065     -2.457999
  H      -1.862799     -1.176218     -2.277568
  H      -1.957415     -0.365693      2.223697
  H      -2.008256      1.373414      2.003007
  H      -0.459388      0.528133      2.001575
  H      -3.352682     -0.060879     -1.158351
  H      -3.668136      1.008610      0.197762
  H      -3.557741     -0.723675      0.457453
  H      -0.614732     -3.047335     -0.415869
  H      -2.259712     -2.473772     -0.204401
  H      -1.117454     -2.396106      1.136962
39
Coordinates from ORCA-job ./output/beta_patchoulene/beta_patchoulene E -99.968894188278
  C       2.935036      1.197520      1.648064
  C       2.628092      0.630591      0.270134
  C       3.023773     -0.850693      0.117094
  C       1.717400     -1.657218      0.088852
  C       0.657162     -0.612208     -0.094345
  C       1.156274      0.615014     -0.026921
  C       0.308230      1.831128     -0.186816
  C      -1.083861      1.431806     -0.666796
  C      -1.026356      0.836295     -2.086300
  C      -0.958570     -0.690458     -1.911389
  C      -0.798052     -0.895567     -0.394503
  C      -1.646260      0.274452      0.181175
  C      -1.495532      0.467688      1.682905
  C      -3.137458      0.111228     -0.106598
  C      -1.220016     -2.276175      0.067896
  H       2.446733      0.607271      2.425824
  H       4.007689      1.188572      1.844450
  H       2.590381      2.227342      1.745350
  H       3.154362      1.242879     -0.469077
  H       3.684884     -1.171155      0.922372
  H       3.570902     -0.997675     -0.813561
  H       1.712381     -2.393101     -0.718432
  H       1.557333     -2.225116      1.009288
  H       0.251413      2.386287      0.754527
  H       0.762386      2.518616     -0.906779
  H      -1.743917      2.300955     -0.626309
  H      -0.164642      1.220170     -2.631737
  H      -1.906658      1.120914     -2.662023
  H      -0.125076     -1.135348     -2.454909
  H      -1.864899     -1.178621     -2.271735
  H      -1.962416     -0.356759      2.222809
  H      -1.999488      1.382233      1.999728
  H      -0.456912      0.523931      1.997338
  H      -3.359924     -0.037209     -1.160809
  H      -3.670048      1.007239      0.215199
  H      -3.558830     -0.728811      0.444623
  H      -0.613350     -3.049050     -0.403383
  H      -2.258173     -2.475795     -0.192146
  H      -1.113989     -2.391174      1.146943
39
Coordinates from ORCA-job ./output/beta_patchoulene/beta_patchoulene E -99.968955465516
  C       2.926791      1.177183      1.660442
  C       2.627979      0.635725      0.270042
  C       3.025602     -0.841816      0.093777
  C       1.720561     -1.649621      0.093978
  C       0.658554     -0.607508     -0.093004
  C       1.156845      0.620752     -0.029476
  C       0.305813      1.835598     -0.189981
  C      -1.084643      1.431326     -0.672135
  C      -1.017996      0.829159     -2.089480
  C      -0.959717     -0.696633     -1.907249
  C      -0.796615     -0.894880     -0.390612
  C      -1.646514      0.276014      0.179246
  C      -1.497190      0.472990      1.681268
  C      -3.137184      0.113572     -0.110302
  C      -1.215512     -2.274342      0.078754
  H       2.443620      0.566348      2.425248
  H       3.999160      1.176727      1.858790
  H       2.569705      2.200806      1.777316
  H       3.154507      1.262063     -0.456874
  H       3.712672     -1.168970      0.874145
  H       3.542051     -0.976213     -0.856342
  H       1.706313     -2.398085     -0.701431
  H       1.570872     -2.201086      1.026350
  H       0.244541      2.390611      0.751145
  H       0.760572      2.523529     -0.909040
  H      -1.748488      2.297664     -0.638872
  H      -0.145549      1.202941     -2.624735
  H      -1.888629      1.117348     -2.677935
  H      -0.133256     -1.150562     -2.454085
  H      -1.872090     -1.179280     -2.260463
  H      -1.974250     -0.345362      2.221786
  H      -1.991534      1.393863      1.994674
  H      -0.458884      0.518067      1.998545
  H      -3.359716     -0.015431     -1.167270
  H      -3.670747      1.003158      0.227294
  H      -3.557655     -0.736030      0.426755
  H      -0.609610     -3.048851     -0.390761
  H      -2.253999     -2.476930     -0.177596
  H      -1.106379     -2.383842      1.158091
39
Coordinates from ORCA-job ./output/beta_patchoulene/beta_patchoulene E -99.969024137303
  C       2.907361      1.145113      1.682566
  C       2.627314      0.642637      0.273010
  C       3.028184     -0.828560      0.063457
  C       1.726633     -1.640064      0.103656
  C       0.661828     -0.602569     -0.095465
  C       1.157926      0.627390     -0.037378
  C       0.304222      1.840127     -0.200449
  C      -1.084994      1.430664     -0.681445
  C      -1.013510      0.820676     -2.096287
  C      -0.962642     -0.704484     -1.904613
  C      -0.793458     -0.893748     -0.388627
  C      -1.643777      0.278461      0.176137
  C      -1.492155      0.482820      1.677099
  C      -3.134868      0.116280     -0.110432
  C      -1.208091     -2.271635      0.090240
  H       2.424086      0.505694      2.423133
  H       3.977669      1.152117      1.890734
  H       2.535815      2.160140      1.825434
  H       3.158828      1.289308     -0.431504
  H       3.750956     -1.164423      0.806657
  H       3.498948     -0.944231     -0.912635
  H       1.703736     -2.408753     -0.671339
  H       1.590128     -2.162301      1.054709
  H       0.239665      2.394907      0.740479
  H       0.758751      2.527021     -0.920293
  H      -1.751496      2.294852     -0.654138
  H      -0.132650      1.183996     -2.624504
  H      -1.876638      1.110364     -2.694491
  H      -0.144424     -1.166169     -2.456990
  H      -1.881413     -1.182281     -2.247612
  H      -1.980069     -0.326447      2.221440
  H      -1.973162      1.412394      1.984765
  H      -0.453542      0.515609      1.994820
  H      -3.359968      0.005796     -1.168823
  H      -3.668014      0.999676      0.243306
  H      -3.553027     -0.741778      0.414412
  H      -0.602715     -3.047385     -0.377341
  H      -2.246739     -2.478168     -0.161453
  H      -1.094696     -2.373044      1.169765
39
Coordinates from ORCA-job ./output/beta_patchoulene/beta_patchoulene E -99.969065465035
  C       2.891832      1.124260      1.697854
  C       2.627343      0.646043      0.276527
  C       3.030044     -0.820814      0.047799
  C       1.731500     -1.635385      0.111444
  C       0.664947     -0.600846     -0.099508
  C       1.159425      0.630024     -0.044834
  C       0.305748      1.841585     -0.210963
  C      -1.084258      1.430800     -0.687141
  C      -1.017371      0.817870     -2.100890
  C      -0.965265     -0.707483     -1.905074
  C      -0.790749     -0.892635     -0.389537
  C      -1.640206      0.280348      0.174564
  C      -1.486203      0.489578      1.674341
  C      -3.131846      0.116577     -0.108481
  C      -1.203441     -2.269571      0.094293
  H       2.403105      0.469319      2.420806
  H       3.959922      1.131344      1.916256
  H       2.514948      2.135067      1.854610
  H       3.165269      1.304397     -0.411677
  H       3.773338     -1.161064      0.768305
  H       3.472616     -0.925542     -0.942633
  H       1.706828     -2.418366     -0.648429
  H       1.601751     -2.136377      1.074679
  H       0.242959      2.397412      0.729373
  H       0.758814      2.526081     -0.933712
  H      -1.749909      2.295555     -0.659496
  H      -0.138044      1.179395     -2.632587
  H      -1.882463      1.105438     -2.696893
  H      -0.149408     -1.169164     -2.460572
  H      -1.885545     -1.185706     -2.242908
  H      -1.976632     -0.315545      2.222263
  H      -1.962543      1.422673      1.978154
  H      -0.447207      0.520181      1.990842
  H      -3.358473      0.006275     -1.166378
  H      -3.664488      0.999709      0.246334
  H      -3.548386     -0.741540      0.417233
  H      -0.597972     -3.045417     -0.372581
  H      -2.242148     -2.477809     -0.155209
  H      -1.087831     -2.366664      1.173827
39
Coordinates from ORCA-job ./output/beta_patchoulene/beta_patchoulene E -99.969095563046
  C       2.881781      1.114749      1.706214
  C       2.627751      0.646438      0.279629
  C       3.031033     -0.818512      0.044369
  C       1.734092     -1.634807      0.117021
  C       0.667093     -0.601498     -0.103533
  C       1.160856      0.629532     -0.050411
  C       0.308886      1.840852     -0.219495
  C      -1.083157      1.431477     -0.689582
  C      -1.025879      0.819315     -2.103220
  C      -0.966194     -0.706565     -1.907835
  C      -0.789030     -0.891757     -0.392326
  C      -1.636971      0.281685      0.174166
  C      -1.480352      0.493237      1.672859
  C      -3.129264      0.115426     -0.104974
  C      -1.201947     -2.268406      0.092047
  H       2.385693      0.455274      2.419890
  H       3.948096      1.117661      1.932745
  H       2.506146      2.125208      1.867093
  H       3.171844      1.308935     -0.399487
  H       3.782547     -1.159894      0.755832
  H       3.461855     -0.919369     -0.951633
  H       1.711990     -2.426661     -0.633300
  H       1.605600     -2.123726      1.086531
  H       0.251064      2.399087      0.719730
  H       0.759830      2.522415     -0.946198
  H      -1.745908      2.298435     -0.657705
  H      -0.155010      1.185977     -2.645131
  H      -1.899190      1.102300     -2.689215
  H      -0.147136     -1.162623     -2.463046
  H      -1.883599     -1.189540     -2.246055
  H      -1.965693     -0.312649      2.223868
  H      -1.960194      1.424945      1.975406
  H      -0.440762      0.530381      1.986464
  H      -3.357091     -0.008763     -1.160891
  H      -3.661361      1.002894      0.239538
  H      -3.544679     -0.736334      0.431711
  H      -0.596047     -3.043648     -0.375111
  H      -2.240660     -2.476313     -0.157449
  H      -1.086031     -2.365156      1.171486
39
Coordinates from ORCA-job ./output/beta_patchoulene/beta_patchoulene E -99.969107835456
  C       2.879725      1.112442      1.708248
  C       2.628082      0.645732      0.280837
  C       3.030915     -0.818886      0.044434
  C       1.734289     -1.635048      0.119375
  C       0.667515     -0.601868     -0.104415
  C       1.161523      0.628934     -0.051720
  C       0.310589      1.840485     -0.222352
  C      -1.082669      1.432088     -0.689853
  C      -1.030187      0.820939     -2.103425
  C      -0.964867     -0.704946     -1.909517
  C      -0.788673     -0.891265     -0.393559
  C      -1.636120      0.282475      0.174251
  C      -1.478640      0.494321      1.672643
  C      -3.128541      0.114427     -0.103516
  C      -1.202614     -2.267866      0.089605
  H       2.381227      0.453059      2.420482
  H       3.945623      1.113058      1.937065
  H       2.505786      2.123421      1.869989
  H       3.174581      1.308668     -0.395956
  H       3.784702     -1.160256      0.753640
  H       3.458983     -0.919342     -0.952880
  H       1.713541     -2.430818     -0.626890
  H       1.605608     -2.120976      1.090521
  H       0.255873      2.401295      0.715602
  H       0.760270      2.520540     -0.951340
  H      -1.743936      2.300237     -0.655599
  H      -0.165505      1.192651     -2.651892
  H      -1.909001      1.100739     -2.682879
  H      -0.141581     -1.156940     -2.461859
  H      -1.878853     -1.192092     -2.250849
  H      -1.957625     -0.314558      2.224812
  H      -1.964861      1.422589      1.975955
  H      -0.438794      0.539134      1.984414
  H      -3.356665     -0.022882     -1.157750
  H      -3.660712      1.005833      0.230674
  H      -3.543669     -0.731344      0.442918
  H      -0.596572     -3.043005     -0.377701
  H      -2.241437     -2.474798     -0.160524
  H      -1.087310     -2.366175      1.169015
39
Coordinates from ORCA-job ./output/beta_patchoulene/beta_patchoulene E -99.969112249745
  C       2.879558      1.109880      1.709399
  C       2.628310      0.645447      0.281260
  C       3.030498     -0.818871      0.042682
  C       1.734020     -1.634272      0.121318
  C       0.667488     -0.601319     -0.103656
  C       1.161962      0.629355     -0.051688
  C       0.311112      1.840983     -0.223324
  C      -1.082683      1.432545     -0.690072
  C      -1.031289      0.821375     -2.103440
  C      -0.962987     -0.704148     -1.909955
  C      -0.788534     -0.890794     -0.393500
  C      -1.636159      0.283066      0.174178
  C      -1.478437      0.495053      1.672581
  C      -3.128482      0.113951     -0.103437
  C      -1.203176     -2.267347      0.088860
  H       2.381574      0.449403      2.421104
  H       3.945479      1.110577      1.938502
  H       2.505227      2.120458      1.873194
  H       3.175436      1.309279     -0.394231
  H       3.787336     -1.160700      0.748516
  H       3.454722     -0.918468     -0.956455
  H       1.712525     -2.433126     -0.621767
  H       1.606105     -2.118113      1.093803
  H       0.257402      2.403916      0.713480
  H       0.760308      2.520233     -0.953494
  H      -1.743851      2.300825     -0.655529
  H      -0.169424      1.195737     -2.654652
  H      -1.912464      1.099347     -2.680400
  H      -0.136961     -1.154511     -2.459636
  H      -1.874805     -1.193724     -2.253742
  H      -1.952940     -0.316343      2.225034
  H      -1.969449      1.420555      1.976902
  H      -0.438556      0.544878      1.983537
  H      -3.356497     -0.031169     -1.156723
  H      -3.661021      1.007561      0.224379
  H      -3.543595     -0.728290      0.448589
  H      -0.597514     -3.042811     -0.378572
  H      -2.242198     -2.473520     -0.161290
  H      -1.088038     -2.366899      1.168245
39
Coordinates from ORCA-job ./output/beta_patchoulene/beta_patchoulene E -99.969113051970
  C       2.880672      1.109965      1.708889
  C       2.628540      0.645193      0.281031
  C       3.030287     -0.819359      0.042806
  C       1.733577     -1.634095      0.121943
  C       0.667335     -0.601072     -0.102793
  C       1.162169      0.629544     -0.051188
  C       0.311122      1.841159     -0.222992
  C      -1.082817      1.432749     -0.689702
  C      -1.031358      0.821681     -2.103154
  C      -0.961938     -0.703646     -1.909886
  C      -0.788573     -0.890583     -0.393207
  C      -1.636421      0.283114      0.174254
  C      -1.478894      0.494898      1.672781
  C      -3.128617      0.113823     -0.103756
  C      -1.203617     -2.267281      0.088362
  H       2.383697      0.449664      2.421468
  H       3.946773      1.111351      1.937286
  H       2.505909      2.120400      1.872734
  H       3.175239      1.308735     -0.395118
  H       3.787345     -1.161233      0.748391
  H       3.454236     -0.919210     -0.956457
  H       1.711360     -2.433334     -0.620800
  H       1.605662     -2.117978      1.094481
  H       0.257321      2.404797      0.713386
  H       0.760351      2.520175     -0.953391
  H      -1.744130      2.300890     -0.655295
  H      -0.170267      1.196923     -2.654996
  H      -1.913201      1.099045     -2.679458
  H      -0.134919     -1.153564     -2.458508
  H      -1.872975     -1.193970     -2.254827
  H      -1.951534     -0.317899      2.224839
  H      -1.971993      1.419058      1.977799
  H      -0.439124      0.546516      1.983783
  H      -3.356178     -0.034115     -1.156787
  H      -3.661349      1.008262      0.221489
  H      -3.544039     -0.727094      0.450114
  H      -0.598547     -3.042906     -0.379624
  H      -2.242832     -2.472852     -0.161568
  H      -1.088269     -2.367749      1.167670
