39
Coordinates from ORCA-job ./output/beta_patchoulene/beta_patchoulene E -99.969113051970
  C           2.88067217048531      1.10996477838520      1.70888933615888
  C           2.62854022377413      0.64519292196475      0.28103131051976
  C           3.03028660169308     -0.81935918095455      0.04280614706968
  C           1.73357748316562     -1.63409471898983      0.12194268948622
  C           0.66733456570406     -0.60107239629541     -0.10279329086837
  C           1.16216914983775      0.62954377579450     -0.05118814729439
  C           0.31112202704151      1.84115861424396     -0.22299234695814
  C          -1.08281661287128      1.43274948448659     -0.68970155391146
  C          -1.03135829119247      0.82168064207517     -2.10315416451175
  C          -0.96193762380279     -0.70364602761461     -1.90988607742928
  C          -0.78857311721990     -0.89058313048812     -0.39320720943308
  C          -1.63642074849188      0.28311434265269      0.17425437364442
  C          -1.47889433017395      0.49489840405164      1.67278136396321
  C          -3.12861746121757      0.11382261045154     -0.10375551775486
  C          -1.20361673597192     -2.26728142017208      0.08836232010255
  H           2.38369715859762      0.44966392889166      2.42146826071545
  H           3.94677255734749      1.11135122233521      1.93728588654896
  H           2.50590857869448      2.12040034942944      1.87273377042910
  H           3.17523944896322      1.30873467114682     -0.39511776778536
  H           3.78734486761836     -1.16123269534553      0.74839061433715
  H           3.45423557924648     -0.91920985033029     -0.95645740155080
  H           1.71136017408575     -2.43333439488644     -0.62079976271776
  H           1.60566206136660     -2.11797785553485      1.09448133149630
  H           0.25732110665665      2.40479652343600      0.71338618097325
  H           0.76035056657446      2.52017532380381     -0.95339075762881
  H          -1.74412957241751      2.30088963989476     -0.65529488817169
  H          -0.17026749597996      1.19692281399406     -2.65499556151192
  H          -1.91320144142765      1.09904455442246     -2.67945758483217
  H          -0.13491869157873     -1.15356437228087     -2.45850809035501
  H          -1.87297531980535     -1.19396950812628     -2.25482747575672
  H          -1.95153358595376     -0.31789865730505      2.22483925468775
  H          -1.97199307366326      1.41905839157767      1.97779884214210
  H          -0.43912419913525      0.54651585555905      1.98378316216709
  H          -3.35617816835017     -0.03411471782972     -1.15678724116894
  H          -3.66134945104353      1.00826221054741      0.22148929286258
  H          -3.54403883545524     -0.72709443647218      0.45011354792276
  H          -0.59854709134619     -3.04290637655919     -0.37962367621617
  H          -2.24283151399034     -2.47285164954491     -0.16156785503363
  H          -1.08826895976387     -2.36774867041447      1.16766968566308
