34
Coordinates from ORCA-job ./output/bornyl_acetate/bornyl_acetate E -112.594125621206
  C           3.93957034055114      1.20768390782985     -0.13504056814433
  C           2.98824926758048      0.05339277964437     -0.12853652161312
  O           3.25969387383005     -1.05642735986476      0.24147506799137
  O           1.79001624189284      0.41858675986530     -0.59377348494941
  C           0.75411230970394     -0.57251921790595     -0.66298394660996
  C          -0.14404075607838     -0.28770141786067     -1.87436242386331
  C          -1.54386311106748     -0.22115032029464     -1.26297769879296
  C          -1.90240440500838     -1.64261585692990     -0.82157316995764
  C          -0.99006772726864     -1.85697789053207      0.40401079361145
  C          -0.21785254980987     -0.53137883159829      0.53218608515824
  C          -1.29048786017163      0.49773517048260      0.07629879987280
  C          -0.79124777776494      1.93009500823160     -0.07136462603783
  C          -2.51660785409127      0.55347325318236      0.98011705951385
  C           0.42991815188225     -0.32261495617593      1.87710805383845
  H           4.90126052590223      0.88653098071507      0.24844133392212
  H           3.54179058449832      2.01315487080220      0.47820027138425
  H           4.04704686904804      1.58806421522842     -1.14814854167432
  H           1.24857523279294     -1.53792700144517     -0.71568105335839
  H          -0.06246512436807     -1.06138680259844     -2.63631291919038
  H           0.14712029200086      0.65327761030977     -2.33469516745107
  H          -2.28376066316427      0.24628575772481     -1.91218698321169
  H          -2.95519369903087     -1.73009106954705     -0.55931106822112
  H          -1.71408901976483     -2.36552725624720     -1.61466439401980
  H          -0.30942830704882     -2.69964788287889      0.28463835427454
  H          -1.56600853445241     -2.04959577273684      1.30749359319681
  H          -0.56308667886151      2.35288342597045      0.90749619425423
  H          -1.57372299649885      2.54807361859941     -0.51402580368232
  H           0.10034437561797      2.02780037157874     -0.67978749062480
  H          -3.28464955461576      1.17887863375992      0.52342754935674
  H          -2.96294990117507     -0.41529203128984      1.18328380485635
  H          -2.26297964268107      1.00587568276074      1.93892703586600
  H           1.14760584629663     -1.11356470095222      2.09091031317977
  H          -0.31987455691330     -0.32565603872377      2.66774166139123
  H           0.95947780823772      0.62828236089603      1.92366988973422
