39
Coordinates from ORCA-job ./output/alpha_himachalene/alpha_himachalene E -99.904648509825
  C       3.657178     -1.477317     -0.911349
  C       2.456276     -0.642858     -0.556616
  C       1.257626     -0.977964     -1.077855
  C      -0.052719     -0.272867     -0.747322
  C       0.271256      1.212712     -0.352731
  C       1.390879      1.321584      0.700646
  C       2.675983      0.627270      0.236266
  C      -0.881355      2.163169     -0.033050
  C      -0.699790      3.481820     -0.247189
  C      -2.189928      1.710184      0.567815
  C      -2.856230      0.647624     -0.295333
  C      -2.498077     -0.779159      0.126361
  C      -0.976371     -1.170621      0.191193
  C      -0.912524     -2.657517     -0.273592
  C      -0.494755     -1.176261      1.661592
  H       3.522627     -2.509530     -0.524430
  H       4.583257     -1.053609     -0.468127
  H       3.781858     -1.513447     -2.014509
  H       1.207895     -1.839736     -1.739201
  H      -0.582770     -0.215814     -1.723705
  H       0.719070      1.629135     -1.287522
  H       1.081933      0.922191      1.680507
  H       1.633536      2.391874      0.880938
  H       3.246933      1.331551     -0.407272
  H       3.303524      0.403151      1.125851
  H       0.231623      3.860572     -0.657841
  H      -1.473300      4.208369     -0.017415
  H      -2.049217      1.372837      1.611648
  H      -2.897422      2.566812      0.637900
  H      -3.959058      0.754812     -0.191590
  H      -2.636812      0.809222     -1.373588
  H      -2.987273     -0.988416      1.104154
  H      -3.032751     -1.429947     -0.602455
  H       0.080776     -3.113152     -0.070417
  H      -1.125019     -2.738526     -1.361845
  H      -1.661409     -3.276946      0.268086
  H      -1.028351     -1.956773      2.246967
  H      -0.698296     -0.222119      2.174666
  H       0.591197     -1.402310      1.720362
39
Coordinates from ORCA-job ./output/alpha_himachalene/alpha_himachalene E -99.917010690110
  C       3.626941     -1.466559     -0.916092
  C       2.413985     -0.647052     -0.557012
  C       1.220546     -0.973452     -1.051160
  C      -0.075338     -0.264477     -0.740152
  C       0.257786      1.197846     -0.346407
  C       1.355389      1.277473      0.714673
  C       2.634907      0.590659      0.256017
  C      -0.871808      2.159276     -0.028431
  C      -0.686453      3.456218     -0.270471
  C      -2.170731      1.708100      0.569276
  C      -2.843769      0.634428     -0.275314
  C      -2.466929     -0.786198      0.115920
  C      -0.965356     -1.150281      0.185160
  C      -0.871313     -2.610461     -0.281820
  C      -0.485655     -1.126049      1.637524
  H       3.518870     -2.485246     -0.544473
  H       4.533846     -1.045469     -0.482277
  H       3.758179     -1.505204     -1.997217
  H       1.160334     -1.836286     -1.703078
  H      -0.610066     -0.209655     -1.695942
  H       0.713166      1.601382     -1.256816
  H       1.024976      0.862146      1.664885
  H       1.581690      2.325179      0.916507
  H       3.212056      1.286615     -0.362045
  H       3.254554      0.355237      1.125728
  H       0.234345      3.820070     -0.711258
  H      -1.448901      4.188632     -0.042507
  H      -2.022850      1.363121      1.594845
  H      -2.842367      2.564720      0.648010
  H      -3.927990      0.725189     -0.168055
  H      -2.637268      0.807847     -1.332615
  H      -2.930011     -1.011656      1.080450
  H      -2.967113     -1.443117     -0.603004
  H       0.111986     -3.038192     -0.084506
  H      -1.078931     -2.694675     -1.350986
  H      -1.601105     -3.223131      0.249592
  H      -1.001137     -1.896167      2.215332
  H      -0.691970     -0.178403      2.131450
  H       0.583510     -1.332408      1.696265
39
Coordinates from ORCA-job ./output/alpha_himachalene/alpha_himachalene E -99.918422486000
  C       3.657247     -1.411723     -0.931806
  C       2.428917     -0.620526     -0.559957
  C       1.232594     -0.974898     -1.010215
  C      -0.069493     -0.276707     -0.712858
  C       0.266453      1.185761     -0.334349
  C       1.366475      1.283339      0.721724
  C       2.646338      0.609039      0.260158
  C      -0.854666      2.158352     -0.031578
  C      -0.682029      3.437675     -0.340400
  C      -2.144053      1.716925      0.586978
  C      -2.842536      0.649738     -0.243509
  C      -2.472009     -0.778747      0.111216
  C      -0.980085     -1.164074      0.195943
  C      -0.913986     -2.614552     -0.289396
  C      -0.528314     -1.186984      1.652986
  H       3.593867     -2.426662     -0.546347
  H       4.558932     -0.960673     -0.525333
  H       3.772977     -1.469246     -2.011281
  H       1.175672     -1.842712     -1.654810
  H      -0.598187     -0.223998     -1.669211
  H       0.721743      1.573227     -1.247566
  H       1.041145      0.867849      1.668393
  H       1.572483      2.333510      0.916089
  H       3.222591      1.306347     -0.354347
  H       3.276089      0.375732      1.120037
  H       0.225233      3.785312     -0.819856
  H      -1.441297      4.177866     -0.127284
  H      -1.982064      1.359454      1.604308
  H      -2.790283      2.586822      0.680285
  H      -3.921106      0.746855     -0.120605
  H      -2.650537      0.839334     -1.298621
  H      -2.937309     -1.026210      1.066608
  H      -2.958662     -1.422620     -0.622773
  H       0.047369     -3.073467     -0.076728
  H      -1.100263     -2.681794     -1.360632
  H      -1.677136     -3.204088      0.216071
  H      -1.083404     -1.952317      2.194580
  H      -0.706413     -0.247217      2.164518
  H       0.527708     -1.433922      1.729565
39
Coordinates from ORCA-job ./output/alpha_himachalene/alpha_himachalene E -99.919078047844
  C       3.668800     -1.377712     -0.956097
  C       2.428053     -0.613593     -0.572396
  C       1.231606     -0.977916     -1.007898
  C      -0.072956     -0.282717     -0.720116
  C       0.270659      1.172707     -0.334680
  C       1.346591      1.245149      0.749328
  C       2.634737      0.587778      0.291813
  C      -0.846351      2.153947     -0.046393
  C      -0.687434      3.420930     -0.404742
  C      -2.119779      1.717969      0.607338
  C      -2.849482      0.665688     -0.214254
  C      -2.476579     -0.771102      0.093629
  C      -0.984105     -1.162463      0.190246
  C      -0.911185     -2.618430     -0.279404
  C      -0.535846     -1.161961      1.648824
  H       3.636622     -2.397214     -0.574669
  H       4.564767     -0.907930     -0.555655
  H       3.781706     -1.434736     -2.037298
  H       1.177115     -1.844439     -1.656193
  H      -0.604203     -0.227771     -1.675813
  H       0.752273      1.558716     -1.236070
  H       0.997252      0.793536      1.673212
  H       1.535536      2.291980      0.979925
  H       3.229467      1.302055     -0.287310
  H       3.255010      0.325618      1.151358
  H       0.206182      3.757455     -0.916708
  H      -1.442137      4.167351     -0.193730
  H      -1.931745      1.338892      1.613542
  H      -2.747022      2.599106      0.728853
  H      -3.924531      0.765908     -0.062094
  H      -2.682809      0.880321     -1.271044
  H      -2.945764     -1.052465      1.039242
  H      -2.948557     -1.397677     -0.664370
  H       0.050833     -3.074677     -0.058453
  H      -1.094670     -2.702583     -1.351003
  H      -1.678708     -3.199193      0.231950
  H      -1.101348     -1.914438      2.198932
  H      -0.701406     -0.209706      2.143487
  H       0.519407     -1.416386      1.734708
39
Coordinates from ORCA-job ./output/alpha_himachalene/alpha_himachalene E -99.919390069563
  C       3.674928     -1.374920     -0.939123
  C       2.432855     -0.613005     -0.560933
  C       1.235485     -0.983187     -0.993233
  C      -0.069099     -0.282915     -0.715765
  C       0.274878      1.175484     -0.334378
  C       1.350756      1.255482      0.751974
  C       2.639232      0.595899      0.296723
  C      -0.845572      2.155310     -0.057590
  C      -0.707105      3.414008     -0.456140
  C      -2.101907      1.722614      0.631901
  C      -2.854139      0.680814     -0.183491
  C      -2.480299     -0.763260      0.091272
  C      -0.987832     -1.162057      0.187838
  C      -0.919907     -2.612096     -0.302962
  C      -0.540854     -1.190613      1.648338
  H       3.658145     -2.386464     -0.533264
  H       4.570894     -0.886402     -0.558922
  H       3.778647     -1.458043     -2.020580
  H       1.181296     -1.858004     -1.631761
  H      -0.594062     -0.230674     -1.676204
  H       0.759780      1.557264     -1.237216
  H       1.002201      0.805031      1.676941
  H       1.536569      2.305208      0.977110
  H       3.239219      1.307507     -0.282164
  H       3.259940      0.333954      1.157355
  H       0.172417      3.745162     -0.995209
  H      -1.464364      4.159622     -0.250195
  H      -1.890417      1.335092      1.630146
  H      -2.723547      2.606273      0.773737
  H      -3.925865      0.782818     -0.004141
  H      -2.712960      0.911763     -1.241926
  H      -2.954588     -1.072772      1.026785
  H      -2.946870     -1.370501     -0.687323
  H       0.043677     -3.073076     -0.092245
  H      -1.107538     -2.681953     -1.375929
  H      -1.686903     -3.199154      0.203986
  H      -1.110031     -1.952590      2.183159
  H      -0.701851     -0.247936      2.162665
  H       0.514791     -1.449683      1.730762
39
Coordinates from ORCA-job ./output/alpha_himachalene/alpha_himachalene E -99.919684428342
  C       3.685147     -1.367514     -0.915660
  C       2.439582     -0.609781     -0.547451
  C       1.245126     -0.981258     -0.992099
  C      -0.061795     -0.280745     -0.719970
  C       0.281956      1.178438     -0.336712
  C       1.344802      1.257383      0.763572
  C       2.637453      0.599500      0.315889
  C      -0.843208      2.153989     -0.078874
  C      -0.738712      3.396359     -0.538452
  C      -2.070031      1.730019      0.667233
  C      -2.856429      0.701157     -0.134259
  C      -2.479234     -0.751939      0.093054
  C      -0.988564     -1.160081      0.179537
  C      -0.940639     -2.605923     -0.330099
  C      -0.536432     -1.218947      1.639020
  H       3.690946     -2.364271     -0.472778
  H       4.579002     -0.851621     -0.566309
  H       3.775451     -1.489974     -1.994913
  H       1.197413     -1.853563     -1.634280
  H      -0.580735     -0.227340     -1.684489
  H       0.780550      1.558611     -1.233590
  H       0.988704      0.799140      1.682150
  H       1.525555      2.307527      0.993742
  H       3.248239      1.313806     -0.248571
  H       3.248799      0.326880      1.180979
  H       0.116204      3.715984     -1.121979
  H      -1.501124      4.139341     -0.341420
  H      -1.821661      1.335528      1.653244
  H      -2.684273      2.614864      0.836718
  H      -3.920344      0.803325      0.090123
  H      -2.758714      0.953386     -1.193198
  H      -2.956179     -1.100899      1.013719
  H      -2.942914     -1.329716     -0.710559
  H       0.014653     -3.084114     -0.119457
  H      -1.122421     -2.659356     -1.405508
  H      -1.719755     -3.189165      0.163939
  H      -1.106476     -1.989383      2.161370
  H      -0.689152     -0.286815      2.174877
  H       0.519208     -1.482833      1.711460
39
Coordinates from ORCA-job ./output/alpha_himachalene/alpha_himachalene E -99.919984788411
  C       3.688392     -1.371681     -0.880526
  C       2.441686     -0.608423     -0.532099
  C       1.252115     -0.975087     -0.995472
  C      -0.054802     -0.272203     -0.727753
  C       0.289775      1.184866     -0.339242
  C       1.336702      1.258732      0.775644
  C       2.631943      0.598565      0.337770
  C      -0.840118      2.152516     -0.097759
  C      -0.781610      3.370354     -0.626243
  C      -2.030916      1.737429      0.709144
  C      -2.857437      0.723153     -0.074236
  C      -2.474293     -0.738767      0.091810
  C      -0.986048     -1.153204      0.164858
  C      -0.950298     -2.592306     -0.367400
  C      -0.529353     -1.241064      1.621768
  H       3.724126     -2.333433     -0.367110
  H       4.582164     -0.818421     -0.593752
  H       3.751186     -1.571373     -1.949763
  H       1.209800     -1.844458     -1.641545
  H      -0.569048     -0.214342     -1.694617
  H       0.802102      1.565825     -1.227801
  H       0.971179      0.795472      1.687321
  H       1.517118      2.307911      1.010332
  H       3.254054      1.313536     -0.211896
  H       3.230886      0.314062      1.208122
  H       0.040680      3.674285     -1.262337
  H      -1.552553      4.107008     -0.438524
  H      -1.740425      1.334663      1.679091
  H      -2.635524      2.621848      0.911063
  H      -3.908666      0.820819      0.205584
  H      -2.813155      1.002228     -1.129275
  H      -2.953025     -1.134927      0.991667
  H      -2.934552     -1.278422     -0.739737
  H       0.000479     -3.081465     -0.161718
  H      -1.128731     -2.626779     -1.443950
  H      -1.734441     -3.178356      0.114532
  H      -1.091235     -2.027377      2.128492
  H      -0.686732     -0.324021      2.181515
  H       0.528573     -1.497167      1.684041
39
Coordinates from ORCA-job ./output/alpha_himachalene/alpha_himachalene E -99.920567886598
  C       3.688991     -1.382824     -0.821495
  C       2.442512     -0.605192     -0.509928
  C       1.263091     -0.960654     -1.007893
  C      -0.044238     -0.256427     -0.744276
  C       0.300947      1.196026     -0.345382
  C       1.320253      1.259629      0.792399
  C       2.619839      0.594074      0.373460
  C      -0.836303      2.150406     -0.126377
  C      -0.845757      3.326572     -0.743793
  C      -1.974408      1.752904      0.761285
  C      -2.856012      0.752050      0.015594
  C      -2.462712     -0.718717      0.093879
  C      -0.978606     -1.141925      0.139232
  C      -0.963699     -2.568965     -0.428352
  C      -0.509620     -1.273498      1.589066
  H       3.789024     -2.249355     -0.166692
  H       4.579704     -0.771045     -0.683133
  H       3.688646     -1.747638     -1.847046
  H       1.230922     -1.820910     -1.665494
  H      -0.554698     -0.189295     -1.712330
  H       0.833958      1.580104     -1.219620
  H       0.937167      0.792308      1.693857
  H       1.504042      2.306299      1.034401
  H       3.257430      1.309949     -0.154250
  H       3.196759      0.293022      1.253156
  H      -0.069777      3.604302     -1.446076
  H      -1.630471      4.051607     -0.568129
  H      -1.627264      1.346780      1.709307
  H      -2.565022      2.636701      1.000616
  H      -3.882061      0.836959      0.379438
  H      -2.894124      1.065876     -1.028159
  H      -2.939358     -1.176949      0.963637
  H      -2.924786     -1.203096     -0.769709
  H      -0.020122     -3.075364     -0.233778
  H      -1.139841     -2.572455     -1.505223
  H      -1.754000     -3.158881      0.036806
  H      -1.057464     -2.082760      2.073267
  H      -0.674000     -0.380865      2.184489
  H       0.551059     -1.518752      1.633244
39
Coordinates from ORCA-job ./output/alpha_himachalene/alpha_himachalene E -99.921326542187
  C       3.681276     -1.405366     -0.758948
  C       2.440535     -0.604995     -0.490364
  C       1.273588     -0.943327     -1.027084
  C      -0.032911     -0.237065     -0.764910
  C       0.312369      1.209302     -0.352758
  C       1.305759      1.260494      0.803666
  C       2.607619      0.585133      0.404551
  C      -0.832666      2.147870     -0.146982
  C      -0.906185      3.283048     -0.830692
  C      -1.924804      1.766042      0.803726
  C      -2.853275      0.772455      0.100039
  C      -2.447409     -0.701814      0.089836
  C      -0.968026     -1.128512      0.108695
  C      -0.967175     -2.543725     -0.489757
  C      -0.490670     -1.292048      1.551899
  H       3.875254     -2.104272      0.055187
  H       4.555997     -0.761774     -0.841562
  H       3.593781     -1.983146     -1.675381
  H       1.251438     -1.790967     -1.699554
  H      -0.542165     -0.157263     -1.731702
  H       0.860623      1.599996     -1.213153
  H       0.905386      0.795403      1.697449
  H       1.499785      2.303354      1.051158
  H       3.256607      1.299571     -0.107342
  H       3.162463      0.272369      1.293633
  H      -0.170743      3.538196     -1.582963
  H      -1.707414      3.991782     -0.663863
  H      -1.529386      1.361582      1.731953
  H      -2.504865      2.647148      1.071777
  H      -3.846957      0.835480      0.546464
  H      -2.974007      1.118805     -0.924467
  H      -2.921523     -1.216445      0.926825
  H      -2.912352     -1.130964     -0.799948
  H      -0.029555     -3.062529     -0.304021
  H      -1.138986     -2.518595     -1.565952
  H      -1.760948     -3.139406     -0.041159
  H      -1.019433     -2.124675      2.015208
  H      -0.674464     -0.423473      2.176095
  H       0.573439     -1.517667      1.584398
39
Coordinates from ORCA-job ./output/alpha_himachalene/alpha_himachalene E -99.921963025347
  C       3.670639     -1.422845     -0.751833
  C       2.434693     -0.614490     -0.488925
  C       1.272150     -0.940620     -1.036898
  C      -0.031811     -0.231963     -0.773748
  C       0.313391      1.210938     -0.355301
  C       1.306291      1.254589      0.797934
  C       2.605714      0.570226      0.405178
  C      -0.830212      2.150356     -0.133977
  C      -0.888281      3.298167     -0.794054
  C      -1.943925      1.766820      0.792229
  C      -2.866435      0.759445      0.101510
  C      -2.440457     -0.710936      0.080028
  C      -0.961202     -1.127299      0.096901
  C      -0.948838     -2.542582     -0.497814
  C      -0.485749     -1.271810      1.541074
  H       3.936340     -2.001505      0.132406
  H       4.522289     -0.784091     -0.981005
  H       3.523692     -2.114873     -1.575301
  H       1.250399     -1.780938     -1.717199
  H      -0.545780     -0.144731     -1.735953
  H       0.855776      1.606840     -1.215423
  H       0.900994      0.801732      1.695235
  H       1.514463      2.294050      1.044279
  H       3.247961      1.281057     -0.118418
  H       3.158810      0.267913      1.296940
  H      -0.135838      3.566382     -1.524783
  H      -1.691878      4.003767     -0.627114
  H      -1.559477      1.376245      1.731340
  H      -2.532376      2.646071      1.042266
  H      -3.852228      0.805597      0.563971
  H      -3.003544      1.105234     -0.919555
  H      -2.907923     -1.226564      0.918541
  H      -2.907158     -1.142217     -0.806230
  H      -0.008430     -3.053576     -0.310197
  H      -1.119487     -2.518127     -1.573098
  H      -1.736685     -3.143645     -0.048761
  H      -1.005639     -2.105633      2.010581
  H      -0.689352     -0.400431      2.154857
  H       0.579102     -1.486553      1.580312
39
Coordinates from ORCA-job ./output/alpha_himachalene/alpha_himachalene E -99.922558551037
  C       3.687039     -1.398340     -0.766758
  C       2.440935     -0.615117     -0.486763
  C       1.276021     -0.949689     -1.024674
  C      -0.030172     -0.242427     -0.771914
  C       0.315824      1.200498     -0.353882
  C       1.307546      1.246979      0.802345
  C       2.610118      0.566528      0.413635
  C      -0.828992      2.143975     -0.139598
  C      -0.877417      3.296025     -0.794629
  C      -1.938870      1.763251      0.789205
  C      -2.870620      0.763526      0.107610
  C      -2.448867     -0.706866      0.064284
  C      -0.969380     -1.133483      0.096421
  C      -0.959924     -2.549473     -0.494132
  C      -0.505113     -1.277041      1.545091
  H       4.027250     -1.899569      0.140110
  H       4.499927     -0.749455     -1.092594
  H       3.519327     -2.154641     -1.528672
  H       1.255296     -1.793036     -1.702407
  H      -0.541695     -0.156217     -1.736416
  H       0.860283      1.594115     -1.214577
  H       0.897236      0.792915      1.697951
  H       1.509119      2.288036      1.051278
  H       3.251079      1.280369     -0.111290
  H       3.167147      0.270419      1.304980
  H      -0.117693      3.566756     -1.517122
  H      -1.675289      4.007573     -0.624454
  H      -1.552693      1.367313      1.727125
  H      -2.514762      2.651232      1.041281
  H      -3.849557      0.808238      0.584761
  H      -3.020020      1.122403     -0.910095
  H      -2.926555     -1.231592      0.893275
  H      -2.904972     -1.127990     -0.832964
  H      -0.023168     -3.066098     -0.300131
  H      -1.125961     -2.529009     -1.571071
  H      -1.756206     -3.141593     -0.045466
  H      -1.040854     -2.103113      2.012804
  H      -0.702524     -0.398772      2.150935
  H       0.557155     -1.506629      1.596517
39
Coordinates from ORCA-job ./output/alpha_himachalene/alpha_himachalene E -99.922871187143
  C       3.702607     -1.376606     -0.802232
  C       2.448830     -0.621465     -0.489243
  C       1.275678     -0.966548     -1.004327
  C      -0.031135     -0.258367     -0.759305
  C       0.314162      1.189209     -0.348382
  C       1.321561      1.245979      0.797663
  C       2.624128      0.569211      0.402803
  C      -0.827716      2.142448     -0.126100
  C      -0.836555      3.318517     -0.742474
  C      -1.962453      1.754382      0.768941
  C      -2.881951      0.756717      0.076345
  C      -2.461742     -0.712886      0.044578
  C      -0.980544     -1.143452      0.108304
  C      -0.964651     -2.564620     -0.468796
  C      -0.533736     -1.274827      1.564859
  H       4.101935     -1.842412      0.100682
  H       4.478751     -0.710974     -1.183283
  H       3.527276     -2.157552     -1.539505
  H       1.248712     -1.820750     -1.669996
  H      -0.537865     -0.180095     -1.728027
  H       0.848352      1.579829     -1.219173
  H       0.916603      0.793878      1.698638
  H       1.515476      2.290753      1.042441
  H       3.258329      1.282758     -0.135145
  H       3.194796      0.287958      1.290929
  H      -0.052909      3.600679     -1.434623
  H      -1.626261      4.039216     -0.571090
  H      -1.601237      1.358765      1.717944
  H      -2.534765      2.651154      1.005756
  H      -3.868582      0.804437      0.539661
  H      -3.017423      1.116581     -0.945579
  H      -2.954274     -1.229770      0.872262
  H      -2.897986     -1.144903     -0.858643
  H      -0.026991     -3.078549     -0.265865
  H      -1.127628     -2.558284     -1.547821
  H      -1.765373     -3.150312     -0.015631
  H      -1.089149     -2.087253      2.036637
  H      -0.721758     -0.382262      2.153066
  H       0.525487     -1.520587      1.633726
39
Coordinates from ORCA-job ./output/alpha_himachalene/alpha_himachalene E -99.922927280744
  C       3.706345     -1.376500     -0.789302
  C       2.452732     -0.621642     -0.484305
  C       1.280067     -0.967366     -1.002469
  C      -0.026910     -0.257837     -0.760915
  C       0.317099      1.190269     -0.349626
  C       1.321770      1.247746      0.799535
  C       2.625434      0.572245      0.406345
  C      -0.827451      2.139791     -0.130742
  C      -0.848032      3.309579     -0.759692
  C      -1.949096      1.753915      0.782414
  C      -2.882066      0.763538      0.097444
  C      -2.461657     -0.706118      0.033274
  C      -0.982332     -1.141097      0.102669
  C      -0.971251     -2.560625     -0.480753
  C      -0.539947     -1.284289      1.559822
  H       4.164704     -1.746920      0.130052
  H       4.443387     -0.730481     -1.270156
  H       3.516397     -2.226051     -1.442358
  H       1.254149     -1.823691     -1.665397
  H      -0.528229     -0.180775     -1.732834
  H       0.853505      1.581647     -1.219056
  H       0.915152      0.792070      1.698054
  H       1.512164      2.292940      1.045942
  H       3.263225      1.286004     -0.126730
  H       3.193294      0.288312      1.296076
  H      -0.073927      3.587762     -1.463879
  H      -1.639107      4.028896     -0.588085
  H      -1.575516      1.356479      1.725388
  H      -2.516042      2.651868      1.029304
  H      -3.857488      0.804299      0.585354
  H      -3.044681      1.138581     -0.914956
  H      -2.963978     -1.247046      0.839524
  H      -2.884956     -1.114457     -0.887252
  H      -0.036365     -3.079333     -0.276314
  H      -1.129758     -2.549829     -1.560559
  H      -1.776477     -3.145091     -0.033623
  H      -1.100120     -2.097144      2.025232
  H      -0.722334     -0.394658      2.154191
  H       0.518297     -1.534991      1.628380
39
Coordinates from ORCA-job ./output/alpha_himachalene/alpha_himachalene E -99.922965399338
  C       3.705414     -1.376740     -0.798750
  C       2.452203     -0.622405     -0.487560
  C       1.278109     -0.969626     -1.000721
  C      -0.028776     -0.260053     -0.758399
  C       0.314239      1.188686     -0.349920
  C       1.323269      1.247204      0.795610
  C       2.626243      0.573954      0.398575
  C      -0.828170      2.140010     -0.125587
  C      -0.836212      3.318594     -0.737459
  C      -1.958944      1.750746      0.775104
  C      -2.883721      0.758851      0.081358
  C      -2.462651     -0.710706      0.031179
  C      -0.982993     -1.141988      0.106736
  C      -0.967003     -2.564930     -0.468293
  C      -0.543142     -1.275662      1.565018
  H       4.153093     -1.775480      0.113317
  H       4.449823     -0.721942     -1.255377
  H       3.518454     -2.206399     -1.477485
  H       1.250551     -1.827877     -1.660913
  H      -0.529351     -0.185954     -1.730770
  H       0.847209      1.579615     -1.221190
  H       0.920468      0.790237      1.694910
  H       1.512338      2.292392      1.041489
  H       3.261987      1.287497     -0.136599
  H       3.196594      0.290937      1.286907
  H      -0.054698      3.602087     -1.431287
  H      -1.623339      4.041056     -0.561262
  H      -1.594137      1.354241      1.721929
  H      -2.529531      2.647426      1.016913
  H      -3.865042      0.802564      0.556683
  H      -3.034240      1.128438     -0.934510
  H      -2.966541     -1.245126      0.840331
  H      -2.882293     -1.127107     -0.887158
  H      -0.030818     -3.079231     -0.259902
  H      -1.124390     -2.561256     -1.548057
  H      -1.770652     -3.149385     -0.018993
  H      -1.106176     -2.082707      2.036323
  H      -0.721300     -0.380778      2.152615
  H       0.514126     -1.529184      1.635193
39
Coordinates from ORCA-job ./output/alpha_himachalene/alpha_himachalene E -99.922972388709
  C       3.705222     -1.376045     -0.802992
  C       2.452431     -0.621939     -0.489141
  C       1.277530     -0.970794     -0.999055
  C      -0.029473     -0.261206     -0.756726
  C       0.312820      1.187617     -0.349381
  C       1.323723      1.245876      0.794756
  C       2.626817      0.575506      0.394704
  C      -0.827955      2.140237     -0.122097
  C      -0.830655      3.321997     -0.727447
  C      -1.963407      1.750230      0.772449
  C      -2.884354      0.757538      0.074517
  C      -2.462789     -0.712070      0.029039
  C      -0.983352     -1.142165      0.108626
  C      -0.965777     -2.566581     -0.462765
  C      -0.544813     -1.272931      1.567327
  H       4.155229     -1.777325      0.106591
  H       4.448129     -0.719835     -1.260044
  H       3.517602     -2.203671     -1.483918
  H       1.249168     -1.830677     -1.656924
  H      -0.529045     -0.188788     -1.729732
  H       0.844667      1.578484     -1.221195
  H       0.923369      0.786057      1.693599
  H       1.511182      2.290880      1.041867
  H       3.260965      1.289793     -0.140958
  H       3.198817      0.292261      1.281943
  H      -0.046831      3.606593     -1.418291
  H      -1.616001      4.046013     -0.549931
  H      -1.603301      1.355030      1.721411
  H      -2.535941      2.646350      1.011124
  H      -3.868025      0.802157      0.544784
  H      -3.030251      1.125263     -0.942474
  H      -2.969017     -1.245573      0.837070
  H      -2.878970     -1.130091     -0.890087
  H      -0.029444     -3.079436     -0.251985
  H      -1.121820     -2.565860     -1.542652
  H      -1.769332     -3.150792     -0.013291
  H      -1.110784     -2.076133      2.041324
  H      -0.717917     -0.375797      2.152729
  H       0.511581     -1.530172      1.637224
39
Coordinates from ORCA-job ./output/alpha_himachalene/alpha_himachalene E -99.922973164530
  C       3.705463     -1.375804     -0.804596
  C       2.452927     -0.621596     -0.489950
  C       1.277633     -0.971389     -0.998314
  C      -0.029449     -0.261695     -0.756172
  C       0.312636      1.187084     -0.348880
  C       1.324417      1.245274      0.794635
  C       2.627705      0.576431      0.392814
  C      -0.827728      2.139930     -0.120587
  C      -0.829458      3.322664     -0.724042
  C      -1.964059      1.749275      0.772455
  C      -2.884363      0.757233      0.072612
  C      -2.463033     -0.712400      0.026908
  C      -0.983822     -1.142235      0.108886
  C      -0.965274     -2.567364     -0.460722
  C      -0.547223     -1.271232      1.568254
  H       4.158303     -1.774087      0.104871
  H       4.446576     -0.720394     -1.265679
  H       3.516625     -2.205461     -1.482672
  H       1.248927     -1.832011     -1.655165
  H      -0.528527     -0.189540     -1.729454
  H       0.844066      1.578211     -1.220812
  H       0.925524      0.784020      1.693322
  H       1.511246      2.290202      1.042433
  H       3.260371      1.291243     -0.143833
  H       3.201156      0.293736      1.279296
  H      -0.045153      3.607909     -1.414093
  H      -1.614322      4.046978     -0.545711
  H      -1.604972      1.353354      1.721568
  H      -2.537029      2.645038      1.011325
  H      -3.868659      0.801976      0.541522
  H      -3.028607      1.125397     -0.944421
  H      -2.970973     -1.246487      0.833456
  H      -2.877488     -1.129603     -0.893369
  H      -0.029158     -3.079781     -0.248022
  H      -1.119810     -2.567957     -1.540818
  H      -1.769266     -3.151278     -0.011709
  H      -1.114140     -2.073427      2.042771
  H      -0.720059     -0.373347      2.152631
  H       0.508998     -1.528865      1.639261
