39
Coordinates from ORCA-job ./output/alpha_himachalene/alpha_himachalene E -99.922973164530
  C           3.70546331830843     -1.37580373275188     -0.80459563064789
  C           2.45292748252056     -0.62159584228963     -0.48994996806913
  C           1.27763298520091     -0.97138902007231     -0.99831403174590
  C          -0.02944949232254     -0.26169546338285     -0.75617238370902
  C           0.31263595819859      1.18708384411968     -0.34887990448805
  C           1.32441664958185      1.24527370791182      0.79463451525269
  C           2.62770495403708      0.57643064565887      0.39281445226764
  C          -0.82772763984728      2.13993047993199     -0.12058709577073
  C          -0.82945768919000      3.32266403905428     -0.72404171892340
  C          -1.96405943519086      1.74927475548122      0.77245513893241
  C          -2.88436295998648      0.75723259450961      0.07261178521076
  C          -2.46303334878749     -0.71240049164861      0.02690827252471
  C          -0.98382211537354     -1.14223541490490      0.10888591538100
  C          -0.96527435875591     -2.56736375293993     -0.46072162651892
  C          -0.54722297245263     -1.27123196353316      1.56825375927365
  H           4.15830283941553     -1.77408740609282      0.10487081984787
  H           4.44657592938419     -0.72039371873485     -1.26567929406638
  H           3.51662483469824     -2.20546116491554     -1.48267219758445
  H           1.24892688126636     -1.83201080637617     -1.65516515380182
  H          -0.52852685779373     -0.18953962957339     -1.72945411880823
  H           0.84406616504328      1.57821063998167     -1.22081229931793
  H           0.92552435329936      0.78402007533915      1.69332234432728
  H           1.51124573761609      2.29020158234504      1.04243275238207
  H           3.26037113577217      1.29124299032683     -0.14383278605880
  H           3.20115552942704      0.29373573822488      1.27929630977596
  H          -0.04515270548171      3.60790881041956     -1.41409314429528
  H          -1.61432233497818      4.04697755507951     -0.54571123758413
  H          -1.60497207648580      1.35335429409992      1.72156756962232
  H          -2.53702899589328      2.64503800150437      1.01132501944284
  H          -3.86865862295076      0.80197579556959      0.54152201339728
  H          -3.02860723131743      1.12539653265806     -0.94442103809413
  H          -2.97097330025499     -1.24648668327825      0.83345588717479
  H          -2.87748802170575     -1.12960282652931     -0.89336907560928
  H          -0.02915752699422     -3.07978069179942     -0.24802217282330
  H          -1.11981024792631     -2.56795665398070     -1.54081807047392
  H          -1.76926634705766     -3.15127784657824     -0.01170906757612
  H          -1.11414032120156     -2.07342704116078      2.04277119762950
  H          -0.72005851861727     -0.37334651400058      2.15263103168414
  H           0.50899836679571     -1.52886541767272      1.63926123183989
