! wB97X-3c OPT FREQ TightSCF
%pal
  nprocs 40
end
* xyz 0 1
C      3.657178    -1.477317    -0.911349
C      2.456276    -0.642858    -0.556616
C      1.257626    -0.977964    -1.077855
C     -0.052719    -0.272867    -0.747322
C      0.271256     1.212712    -0.352731
C      1.390879     1.321584     0.700646
C      2.675983     0.627270     0.236266
C     -0.881355     2.163169    -0.033050
C     -0.699790     3.481820    -0.247189
C     -2.189928     1.710184     0.567815
C     -2.856230     0.647624    -0.295333
C     -2.498077    -0.779159     0.126361
C     -0.976371    -1.170621     0.191193
C     -0.912524    -2.657517    -0.273592
C     -0.494755    -1.176261     1.661592
H      3.522627    -2.509530    -0.524430
H      4.583257    -1.053609    -0.468127
H      3.781858    -1.513447    -2.014509
H      1.207895    -1.839736    -1.739201
H     -0.582770    -0.215814    -1.723705
H      0.719070     1.629135    -1.287522
H      1.081933     0.922191     1.680507
H      1.633536     2.391874     0.880938
H      3.246933     1.331551    -0.407272
H      3.303524     0.403151     1.125851
H      0.231623     3.860572    -0.657841
H     -1.473300     4.208369    -0.017415
H     -2.049217     1.372837     1.611648
H     -2.897422     2.566812     0.637900
H     -3.959058     0.754812    -0.191590
H     -2.636812     0.809222    -1.373588
H     -2.987273    -0.988416     1.104154
H     -3.032751    -1.429947    -0.602455
H      0.080776    -3.113152    -0.070417
H     -1.125019    -2.738526    -1.361845
H     -1.661409    -3.276946     0.268086
H     -1.028351    -1.956773     2.246967
H     -0.698296    -0.222119     2.174666
H      0.591197    -1.402310     1.720362
*
