24
Coordinates from ORCA-job ./output/o_cymene/o_cymene E -65.417034637881
  C          -0.36177549162446     -1.85475443691233     -0.86648956367750
  C          -0.92374056097275     -0.60408811207207     -0.25212877988965
  C          -2.30414815109250     -0.52426742921892     -0.11005436040616
  C          -2.92792329924990      0.58914313444085      0.41944941438313
  C          -2.15851100392057      1.66124187912693      0.82468432241891
  C          -0.78468970633221      1.59382059959872      0.69002810356819
  C          -0.14043196377369      0.48201203252345      0.15810489657210
  C           1.37468703798350      0.53174263788657      0.09988361403527
  C           2.01818492969885     -0.31843927782411      1.18939357210126
  C           1.97635991704369      0.24885730982792     -1.27122604226632
  H          -1.09940707680186     -2.65353606828523     -0.82926925617165
  H          -0.10457379202525     -1.69652803671742     -1.91304022805283
  H           0.53037029195356     -2.20836348286708     -0.35896647298057
  H          -2.90630290187856     -1.36668833643538     -0.42564026306712
  H          -4.00467144824560      0.61461382391967      0.51463556160328
  H          -2.61993351231504      2.54505422582629      1.24317033794686
  H          -0.18505636430340      2.43661485306382      1.00964553228438
  H           1.63296263104666      1.56740455344212      0.33014024319359
  H           3.09939422560555     -0.17834021721872      1.19135130840196
  H           1.63823548007909     -0.03983444724660      2.17131594191205
  H           1.82459816656486     -1.38042263074206      1.05052755186764
  H           1.44681040727728      0.79380707996268     -2.05205173239903
  H           3.01832519466308      0.56885297758322     -1.28753054098816
  H           1.96123699061967     -0.80790363166230     -1.52593116038964
