24
Coordinates from ORCA-job ./output/o_cymene/o_cymene E -65.410511229421
  C      -0.373664     -1.842939     -0.933194
  C      -0.936971     -0.607677     -0.278937
  C      -2.337364     -0.526789     -0.152393
  C      -2.942843      0.586872      0.425293
  C      -2.163913      1.643372      0.882598
  C      -0.776643      1.596000      0.754675
  C      -0.132090      0.490384      0.158401
  C       1.396766      0.538881      0.088813
  C       2.039942     -0.257941      1.229653
  C       1.984542      0.166859     -1.280720
  H      -1.123412     -2.662250     -0.964631
  H      -0.085753     -1.615013     -1.979960
  H       0.490694     -2.239558     -0.371060
  H      -2.970220     -1.333942     -0.501085
  H      -4.020304      0.628987      0.520318
  H      -2.635996      2.504561      1.337839
  H      -0.202089      2.435424      1.126889
  H       1.712572      1.595242      0.247244
  H       3.142082     -0.118370      1.215025
  H       1.659164      0.106959      2.207569
  H       1.824564     -1.340749      1.151089
  H       1.346131      0.561972     -2.099535
  H       2.994772      0.617551     -1.387128
  H       2.110033     -0.927837     -1.396761
24
Coordinates from ORCA-job ./output/o_cymene/o_cymene E -65.416468086928
  C      -0.354169     -1.838779     -0.891065
  C      -0.925931     -0.594567     -0.271666
  C      -2.309946     -0.518232     -0.135126
  C      -2.923568      0.590301      0.421817
  C      -2.150818      1.648019      0.857438
  C      -0.774368      1.588622      0.724303
  C      -0.138159      0.486713      0.155825
  C       1.375536      0.532603      0.088715
  C       2.010120     -0.296260      1.201465
  C       1.974128      0.205323     -1.280308
  H      -1.093020     -2.638159     -0.900808
  H      -0.060952     -1.651782     -1.922486
  H       0.503507     -2.211407     -0.337103
  H      -2.927987     -1.341834     -0.465952
  H      -4.000141      0.625594      0.518042
  H      -2.617171      2.517980      1.299213
  H      -0.187143      2.428264      1.071734
  H       1.660826      1.568870      0.285439
  H       3.092757     -0.163870      1.199432
  H       1.632043      0.022034      2.172205
  H       1.798656     -1.358638      1.088066
  H       1.367498      0.629665     -2.079096
  H       2.973561      0.634909     -1.356959
  H       2.074740     -0.865367     -1.443121
24
Coordinates from ORCA-job ./output/o_cymene/o_cymene E -65.416870785970
  C      -0.357425     -1.837061     -0.894830
  C      -0.925571     -0.595617     -0.266346
  C      -2.304904     -0.519680     -0.120888
  C      -2.923055      0.587743      0.428464
  C      -2.151609      1.650994      0.849160
  C      -0.777956      1.587541      0.708933
  C      -0.140880      0.482467      0.157604
  C       1.371992      0.529645      0.092366
  C       2.012116     -0.297464      1.202897
  C       1.975357      0.210702     -1.273807
  H      -1.100677     -2.630522     -0.900246
  H      -0.066837     -1.653620     -1.926873
  H       0.508002     -2.211265     -0.357900
  H      -2.915874     -1.351526     -0.446256
  H      -3.999472      0.618016      0.527220
  H      -2.614642      2.526531      1.283287
  H      -0.183168      2.428603      1.041170
  H       1.639541      1.567323      0.296112
  H       3.093498     -0.164355      1.199588
  H       1.635636      0.013041      2.175625
  H       1.806191     -1.359221      1.089614
  H       1.389777      0.660977     -2.073319
  H       2.985120      0.614595     -1.333100
  H       2.044840     -0.857849     -1.458471
24
Coordinates from ORCA-job ./output/o_cymene/o_cymene E -65.416980093221
  C      -0.360239     -1.850896     -0.869035
  C      -0.925852     -0.599548     -0.258477
  C      -2.304297     -0.521333     -0.111024
  C      -2.926494      0.589651      0.425287
  C      -2.155931      1.659517      0.832598
  C      -0.782741      1.592359      0.692475
  C      -0.142109      0.483756      0.153377
  C       1.372438      0.531628      0.093940
  C       2.010559     -0.318741      1.187039
  C       1.982695      0.244359     -1.273644
  H      -1.108238     -2.640547     -0.859722
  H      -0.068291     -1.688135     -1.905020
  H       0.511176     -2.218019     -0.335366
  H      -2.908968     -1.362365     -0.425856
  H      -4.002842      0.615887      0.524901
  H      -2.617093      2.541024      1.256308
  H      -0.183015      2.434993      1.012720
  H       1.630112      1.567015      0.324005
  H       3.092926     -0.189717      1.187008
  H       1.634382     -0.031893      2.167853
  H       1.803976     -1.378782      1.051742
  H       1.423369      0.740601     -2.066039
  H       3.006094      0.617266     -1.304596
  H       2.018381     -0.818081     -1.500472
24
Coordinates from ORCA-job ./output/o_cymene/o_cymene E -65.417010990529
  C      -0.361902     -1.845998     -0.882835
  C      -0.925134     -0.601301     -0.257317
  C      -2.304262     -0.523311     -0.108804
  C      -2.928009      0.586127      0.429271
  C      -2.158201      1.657728      0.835591
  C      -0.784871      1.591713      0.694235
  C      -0.141464      0.483291      0.155767
  C       1.373847      0.532429      0.095750
  C       2.016326     -0.305457      1.195533
  C       1.979143      0.231004     -1.269505
  H      -1.109817     -2.636001     -0.876795
  H      -0.075522     -1.674004     -1.919524
  H       0.515264     -2.217488     -0.361375
  H      -2.906231     -1.364992     -0.427175
  H      -4.004320      0.609643      0.529236
  H      -2.618933      2.539232      1.259563
  H      -0.183820      2.433537      1.014140
  H       1.628840      1.571336      0.315131
  H       3.098787     -0.175060      1.190696
  H       1.642966     -0.010630      2.175364
  H       1.812945     -1.367683      1.072357
  H       1.434713      0.740973     -2.064000
  H       3.012319      0.577145     -1.297413
  H       1.987336     -0.832234     -1.497890
24
Coordinates from ORCA-job ./output/o_cymene/o_cymene E -65.417024319729
  C      -0.362132     -1.849526     -0.876427
  C      -0.924985     -0.601980     -0.256770
  C      -2.304733     -0.523591     -0.109708
  C      -2.927863      0.587198      0.426476
  C      -2.157950      1.658488      0.833137
  C      -0.784395      1.592489      0.693523
  C      -0.140979      0.483325      0.155592
  C       1.374261      0.532950      0.095970
  C       2.015605     -0.309986      1.192427
  C       1.979403      0.237682     -1.271053
  H      -1.108817     -2.640645     -0.866185
  H      -0.077991     -1.681318     -1.914253
  H       0.515208     -2.218226     -0.353252
  H      -2.907317     -1.365050     -0.427123
  H      -4.004281      0.611602      0.525337
  H      -2.618904      2.540324      1.256231
  H      -0.184071      2.434485      1.014132
  H       1.631265      1.570513      0.319206
  H       3.097984     -0.178758      1.189232
  H       1.641131     -0.019366      2.173028
  H       1.812734     -1.371703      1.064000
  H       1.436023      0.753106     -2.062578
  H       3.013237      0.582221     -1.296645
  H       1.987566     -0.824235     -1.504293
24
Coordinates from ORCA-job ./output/o_cymene/o_cymene E -65.417029800112
  C      -0.361942     -1.851817     -0.871791
  C      -0.924433     -0.602604     -0.255548
  C      -2.304590     -0.524067     -0.109748
  C      -2.927755      0.587695      0.424300
  C      -2.158094      1.659242      0.830413
  C      -0.784443      1.593223      0.692234
  C      -0.140687      0.483324      0.155719
  C       1.374430      0.533269      0.096738
  C       2.015470     -0.313231      1.190478
  C       1.978610      0.242587     -1.271698
  H      -1.106373     -2.644919     -0.855323
  H      -0.083511     -1.686737     -1.911669
  H       0.518219     -2.216783     -0.350812
  H      -2.906938     -1.365960     -0.426237
  H      -4.004293      0.612231      0.522174
  H      -2.619167      2.541674      1.252214
  H      -0.184434      2.435439      1.012698
  H       1.632667      1.569914      0.322637
  H       3.097662     -0.180426      1.188744
  H       1.639799     -0.026507      2.171706
  H       1.814299     -1.374758      1.057998
  H       1.440585      0.768591     -2.059744
  H       3.015520      0.578270     -1.293325
  H       1.979398     -0.817652     -1.512155
24
Coordinates from ORCA-job ./output/o_cymene/o_cymene E -65.417032612368
  C      -0.362374     -1.853744     -0.868914
  C      -0.924128     -0.603543     -0.253951
  C      -2.304495     -0.524521     -0.109444
  C      -2.927771      0.588130      0.422395
  C      -2.158251      1.659990      0.827691
  C      -0.784570      1.593517      0.690883
  C      -0.140551      0.482670      0.156446
  C       1.374555      0.532974      0.097922
  C       2.016443     -0.315429      1.189671
  C       1.977864      0.246311     -1.271713
  H      -1.104349     -2.648945     -0.844947
  H      -0.091843     -1.691317     -1.911329
  H       0.521954     -2.214880     -0.352637
  H      -2.906616     -1.366819     -0.425219
  H      -4.004402      0.612896      0.519188
  H      -2.619293      2.543187      1.247924
  H      -0.184626      2.435995      1.010715
  H       1.632984      1.569119      0.325778
  H       3.098250     -0.179666      1.189493
  H       1.639066     -0.032347      2.171272
  H       1.818477     -1.377095      1.054146
  H       1.445386      0.782884     -2.056296
  H       3.017831      0.572772     -1.289557
  H       1.970459     -0.812140     -1.519514
24
Coordinates from ORCA-job ./output/o_cymene/o_cymene E -65.417033918395
  C      -0.361973     -1.854371     -0.867321
  C      -0.923826     -0.603866     -0.252820
  C      -2.304237     -0.524605     -0.109366
  C      -2.927826      0.588500      0.421027
  C      -2.158468      1.660670      0.825878
  C      -0.784737      1.593827      0.690085
  C      -0.140533      0.482394      0.157161
  C       1.374547      0.532494      0.098894
  C       2.017135     -0.317116      1.189310
  C       1.976995      0.248031     -1.271545
  H      -1.101680     -2.651483     -0.836927
  H      -0.098109     -1.693966     -1.911815
  H       0.526199     -2.211846     -0.355303
  H      -2.906185     -1.367202     -0.424745
  H      -4.004521      0.613406      0.517062
  H      -2.619645      2.544308      1.245027
  H      -0.184917      2.436539      1.009524
  H       1.633057      1.568332      0.328033
  H       3.098639     -0.179159      1.190341
  H       1.638389     -0.036552      2.171112
  H       1.821456     -1.378918      1.051761
  H       1.447669      0.791121     -2.053752
  H       3.018781      0.568738     -1.287571
  H       1.963790     -0.809275     -1.524046
24
Coordinates from ORCA-job ./output/o_cymene/o_cymene E -65.417034442744
  C      -0.362048     -1.854785     -0.866811
  C      -0.923810     -0.604138     -0.252280
  C      -2.304210     -0.524494     -0.109619
  C      -2.927894      0.588862      0.420074
  C      -2.158494      1.661059      0.824931
  C      -0.784726      1.593816      0.689813
  C      -0.140490      0.482052      0.157708
  C       1.374637      0.531975      0.099569
  C       2.017907     -0.317930      1.189414
  C       1.976693      0.248770     -1.271302
  H      -1.100342     -2.653041     -0.831666
  H      -0.102994     -1.695839     -1.912771
  H       0.528902     -2.209721     -0.358069
  H      -2.906270     -1.367051     -0.424987
  H      -4.004614      0.614091      0.515615
  H      -2.619763      2.544886      1.243544
  H      -0.184982      2.436610      1.009208
  H       1.632894      1.567717      0.329461
  H       3.099165     -0.178222      1.191258
  H       1.638120     -0.038835      2.171249
  H       1.823995     -1.379891      1.050899
  H       1.448004      0.794160     -2.052375
  H       3.018941      0.567941     -1.286950
  H       1.961379     -0.807994     -1.525910
24
Coordinates from ORCA-job ./output/o_cymene/o_cymene E -65.417034637881
  C      -0.361775     -1.854754     -0.866490
  C      -0.923741     -0.604088     -0.252129
  C      -2.304148     -0.524267     -0.110054
  C      -2.927923      0.589143      0.419449
  C      -2.158511      1.661242      0.824684
  C      -0.784690      1.593821      0.690028
  C      -0.140432      0.482012      0.158105
  C       1.374687      0.531743      0.099884
  C       2.018185     -0.318439      1.189394
  C       1.976360      0.248857     -1.271226
  H      -1.099407     -2.653536     -0.829269
  H      -0.104574     -1.696528     -1.913040
  H       0.530370     -2.208363     -0.358966
  H      -2.906303     -1.366688     -0.425640
  H      -4.004671      0.614614      0.514636
  H      -2.619934      2.545054      1.243170
  H      -0.185056      2.436615      1.009646
  H       1.632963      1.567405      0.330140
  H       3.099394     -0.178340      1.191351
  H       1.638235     -0.039834      2.171316
  H       1.824598     -1.380423      1.050528
  H       1.446810      0.793807     -2.052052
  H       3.018325      0.568853     -1.287531
  H       1.961237     -0.807904     -1.525931
