! wB97X-3c OPT FREQ TightSCF
%pal
  nprocs 40
end
* xyz 0 1
C     -0.373664    -1.842939    -0.933194
C     -0.936971    -0.607677    -0.278937
C     -2.337364    -0.526789    -0.152393
C     -2.942843     0.586872     0.425293
C     -2.163913     1.643372     0.882598
C     -0.776643     1.596000     0.754675
C     -0.132090     0.490384     0.158401
C      1.396766     0.538881     0.088813
C      2.039942    -0.257941     1.229653
C      1.984542     0.166859    -1.280720
H     -1.123412    -2.662250    -0.964631
H     -0.085753    -1.615013    -1.979960
H      0.490694    -2.239558    -0.371060
H     -2.970220    -1.333942    -0.501085
H     -4.020304     0.628987     0.520318
H     -2.635996     2.504561     1.337839
H     -0.202089     2.435424     1.126889
H      1.712572     1.595242     0.247244
H      3.142082    -0.118370     1.215025
H      1.659164     0.106959     2.207569
H      1.824564    -1.340749     1.151089
H      1.346131     0.561972    -2.099535
H      2.994772     0.617551    -1.387128
H      2.110033    -0.927837    -1.396761
*
