23
Coordinates from ORCA-job ./output/_e_anethole/_e_anethole E -80.219579373892
  C           4.36863655462054     -0.59975436645374      0.67058824555336
  C           2.88495302116899     -0.47892391346736      0.73304924839809
  C           2.13099922423430      0.03308626874001     -0.23130411879493
  C           0.66850938720310      0.16556609614282     -0.21481314329228
  C          -0.15133950850775     -0.61162671840116      0.58854723449935
  C          -1.52702131901573     -0.45055843306249      0.59969353214951
  C          -2.11407928995247      0.50381061538502     -0.21706231185619
  C          -1.31149401580490      1.28036568710954     -1.04341820889311
  C           0.05331174654439      1.10567035738726     -1.03958051622578
  O          -3.44512813089247      0.73879199909488     -0.28265185768283
  C          -4.29906846678190     -0.01906818902614      0.53444566032332
  H           4.67950385798980     -1.64160878145545      0.75737730334640
  H           4.83970192022498     -0.05852780088273      1.49188387343604
  H           4.76013888477248     -0.20643176752357     -0.26585800965699
  H           2.41265885154391     -0.83104113037308      1.64471620838280
  H           2.62273752045383      0.41563951292534     -1.12065785822570
  H           0.28296251772152     -1.37936523139850      1.21352008958142
  H          -2.12449903734716     -1.08227367569946      1.23821784676200
  H          -1.78094780414879      2.01496907867949     -1.68167274849222
  H           0.66437708207749      1.72026090212376     -1.68789096102787
  H          -4.07212889553416      0.13031589145313      1.59114701098586
  H          -4.23670470284946     -1.08184444282767      0.29555271816874
  H          -5.30608139772057      0.33254704153011      0.33304976256100
