! wB97X-3c OPT FREQ TightSCF
%pal
  nprocs 40
end
* xyz 0 1
C      4.001966     0.628334     1.087029
O      3.005290     1.155730     0.217599
C      1.745548     0.573810     0.012079
C      1.344669    -0.609165     0.662214
C      0.077604    -1.149833     0.423466
C     -0.803986    -0.524064    -0.471405
C     -0.407026     0.660053    -1.111495
C      0.859765     1.200241    -0.872350
C     -2.178131    -1.093543    -0.703532
C     -3.112257    -0.701331     0.406730
C     -3.563195     0.549884     0.536290
H      4.298125    -0.389332     0.755541
H      3.620558     0.595216     2.129460
H      4.894750     1.285859     1.056174
H      2.002405    -1.116254     1.354789
H     -0.218088    -2.056287     0.937391
H     -1.078105     1.165997    -1.794523
H      1.154446     2.112652    -1.375217
H     -2.112991    -2.202346    -0.745335
H     -2.590071    -0.756322    -1.680032
H     -3.437479    -1.458037     1.114597
H     -4.240626     0.801706     1.345644
H     -3.263172     1.327034    -0.159998
*
