23
Coordinates from ORCA-job ./output/estragole/estragole E -80.198625935659
  C       4.001966      0.628334      1.087029
  O       3.005290      1.155730      0.217599
  C       1.745548      0.573810      0.012079
  C       1.344669     -0.609165      0.662214
  C       0.077604     -1.149833      0.423466
  C      -0.803986     -0.524064     -0.471405
  C      -0.407026      0.660053     -1.111495
  C       0.859765      1.200241     -0.872350
  C      -2.178131     -1.093543     -0.703532
  C      -3.112257     -0.701331      0.406730
  C      -3.563195      0.549884      0.536290
  H       4.298125     -0.389332      0.755541
  H       3.620558      0.595216      2.129460
  H       4.894750      1.285859      1.056174
  H       2.002405     -1.116254      1.354789
  H      -0.218088     -2.056287      0.937391
  H      -1.078105      1.165997     -1.794523
  H       1.154446      2.112652     -1.375217
  H      -2.112991     -2.202346     -0.745335
  H      -2.590071     -0.756322     -1.680032
  H      -3.437479     -1.458037      1.114597
  H      -4.240626      0.801706      1.345644
  H      -3.263172      1.327034     -0.159998
23
Coordinates from ORCA-job ./output/estragole/estragole E -80.207585339989
  C       3.898519      0.586287      1.070882
  O       2.978004      1.168882      0.186641
  C       1.760262      0.588556      0.003764
  C       1.374530     -0.574607      0.656783
  C       0.119896     -1.114679      0.419181
  C      -0.762369     -0.508153     -0.465168
  C      -0.360362      0.655604     -1.110435
  C       0.891006      1.201841     -0.879944
  C      -2.139067     -1.079089     -0.684816
  C      -3.097720     -0.692226      0.415135
  C      -3.582488      0.534819      0.552520
  H       4.163944     -0.422146      0.746742
  H       3.497610      0.558083      2.086228
  H       4.788077      1.207302      1.058995
  H       2.039132     -1.069656      1.349649
  H      -0.170777     -2.019020      0.935961
  H      -1.027358      1.147571     -1.804354
  H       1.193050      2.105733     -1.389613
  H      -2.069317     -2.166720     -0.733496
  H      -2.534614     -0.750198     -1.645527
  H      -3.395217     -1.454104      1.125969
  H      -4.256548      0.770805      1.364659
  H      -3.308193      1.325117     -0.134641
23
Coordinates from ORCA-job ./output/estragole/estragole E -80.208248535649
  C       3.895370      0.582295      1.063393
  O       2.982196      1.169611      0.177460
  C       1.774833      0.582266      0.008897
  C       1.383469     -0.577746      0.659798
  C       0.126654     -1.107704      0.419554
  C      -0.755806     -0.502812     -0.458433
  C      -0.343653      0.654634     -1.102352
  C       0.905673      1.196562     -0.875677
  C      -2.135085     -1.067701     -0.677212
  C      -3.101893     -0.684121      0.416674
  C      -3.624002      0.524769      0.546611
  H       4.161669     -0.426472      0.745828
  H       3.499395      0.554965      2.079197
  H       4.783026      1.205542      1.045557
  H       2.044475     -1.077742      1.349677
  H      -0.166641     -2.014011      0.932990
  H      -1.007754      1.145497     -1.801437
  H       1.216542      2.096616     -1.386121
  H      -2.069312     -2.153101     -0.736603
  H      -2.522965     -0.728508     -1.636279
  H      -3.364081     -1.445703      1.142490
  H      -4.297407      0.753799      1.361077
  H      -3.384701      1.319067     -0.149973
23
Coordinates from ORCA-job ./output/estragole/estragole E -80.208629218899
  C       3.913478      0.576771      1.056072
  O       2.995733      1.166728      0.174701
  C       1.790504      0.574514      0.016449
  C       1.393777     -0.586176      0.661805
  C       0.132227     -1.105290      0.420167
  C      -0.752883     -0.497268     -0.449916
  C      -0.333112      0.660713     -1.088476
  C       0.916887      1.195375     -0.865081
  C      -2.134976     -1.054079     -0.667349
  C      -3.102361     -0.670763      0.423503
  C      -3.687906      0.510058      0.521513
  H       4.181823     -0.431346      0.738102
  H       3.525202      0.544227      2.074724
  H       4.799017      1.203948      1.033217
  H       2.052478     -1.095284      1.346920
  H      -0.162807     -2.014256      0.929197
  H      -0.997409      1.156838     -1.784793
  H       1.235935      2.095081     -1.370895
  H      -2.075637     -2.139328     -0.735674
  H      -2.517597     -0.703645     -1.625306
  H      -3.302405     -1.416683      1.185420
  H      -4.356070      0.738833      1.340435
  H      -3.513900      1.291034     -0.209618
23
Coordinates from ORCA-job ./output/estragole/estragole E -80.209382258572
  C       3.953226      0.555118      1.040845
  O       3.026743      1.158405      0.173781
  C       1.821081      0.563614      0.030746
  C       1.418086     -0.600999      0.662109
  C       0.146822     -1.100729      0.420669
  C      -0.745457     -0.481436     -0.430426
  C      -0.315976      0.683532     -1.054866
  C       0.936911      1.202614     -0.837995
  C      -2.133105     -1.022142     -0.644431
  C      -3.093852     -0.631338      0.442901
  C      -3.829092      0.464744      0.454820
  H       4.218273     -0.451137      0.712652
  H       3.577380      0.507735      2.064092
  H       4.838807      1.183855      1.014373
  H       2.075283     -1.129546      1.334334
  H      -0.149057     -2.016306      0.919269
  H      -0.984254      1.195148     -1.737462
  H       1.269803      2.105129     -1.329767
  H      -2.087042     -2.108142     -0.721078
  H      -2.507576     -0.656077     -1.601435
  H      -3.141412     -1.302450      1.295338
  H      -4.478981      0.708456      1.284374
  H      -3.816612      1.171956     -0.367729
23
Coordinates from ORCA-job ./output/estragole/estragole E -80.209991724313
  C       3.978280      0.537620      1.032141
  O       3.045882      1.151551      0.176570
  C       1.836646      0.559668      0.038493
  C       1.432236     -0.608793      0.660213
  C       0.155295     -1.098975      0.420309
  C      -0.741158     -0.469752     -0.418439
  C      -0.309359      0.702522     -1.032839
  C       0.946208      1.212044     -0.819117
  C      -2.131985     -1.000945     -0.631025
  C      -3.083458     -0.598290      0.454918
  C      -3.912288      0.427796      0.410706
  H       4.237709     -0.466964      0.692903
  H       3.608299      0.479847      2.057493
  H       4.865898      1.164202      1.006379
  H       2.089786     -1.149226      1.323216
  H      -0.139829     -2.019119      0.911603
  H      -0.981593      1.225525     -1.703058
  H       1.285701      2.118081     -1.300089
  H      -2.094152     -2.088465     -0.703875
  H      -2.503086     -0.632266     -1.589326
  H      -3.033809     -1.194904      1.361604
  H      -4.549573      0.690754      1.244431
  H      -4.001651      1.058093     -0.468096
23
Coordinates from ORCA-job ./output/estragole/estragole E -80.211075052342
  C       4.012218      0.504467      1.024169
  O       3.070148      1.137935      0.190461
  C       1.845588      0.563369      0.044569
  C       1.448919     -0.614878      0.651292
  C       0.165786     -1.102777      0.417462
  C      -0.736133     -0.452843     -0.404286
  C      -0.314541      0.739160     -1.002575
  C       0.947091      1.237794     -0.789978
  C      -2.130288     -0.973947     -0.616449
  C      -3.050709     -0.535130      0.471934
  C      -4.008981      0.367887      0.344406
  H       4.254059     -0.495994      0.656310
  H       3.642446      0.429722      2.049990
  H       4.908595      1.118703      1.009189
  H       2.111988     -1.169312      1.299481
  H      -0.122897     -2.030303      0.897656
  H      -0.997126      1.280606     -1.645225
  H       1.288670      2.154412     -1.250349
  H      -2.102703     -2.066576     -0.657391
  H      -2.505010     -0.623182     -1.581354
  H      -2.867304     -0.983546      1.444730
  H      -4.626900      0.676092      1.177902
  H      -4.232917      0.838344     -0.606828
23
Coordinates from ORCA-job ./output/estragole/estragole E -80.211555658981
  C       4.039599      0.466195      1.007592
  O       3.096608      1.125463      0.197195
  C       1.872103      0.558875      0.057833
  C       1.472988     -0.627669      0.642487
  C       0.183043     -1.098605      0.410224
  C      -0.720994     -0.426386     -0.385318
  C      -0.295793      0.775334     -0.959620
  C       0.969534      1.258709     -0.751218
  C      -2.124048     -0.927086     -0.592393
  C      -3.039594     -0.438115      0.477028
  C      -4.139133      0.269336      0.285934
  H       4.271239     -0.527052      0.617004
  H       3.680601      0.371562      2.034663
  H       4.938429      1.076037      0.995163
  H       2.136168     -1.202868      1.270489
  H      -0.106790     -2.035706      0.871256
  H      -0.983584      1.336495     -1.579842
  H       1.318367      2.182209     -1.191716
  H      -2.116179     -2.019884     -0.601035
  H      -2.485510     -0.597511     -1.568396
  H      -2.720035     -0.667290      1.490198
  H      -4.749550      0.628099      1.104466
  H      -4.497469      0.519860     -0.706878
23
Coordinates from ORCA-job ./output/estragole/estragole E -80.212049303175
  C       4.039526      0.456890      0.996436
  O       3.091580      1.126954      0.205855
  C       1.866257      0.567108      0.059933
  C       1.482671     -0.631636      0.631643
  C       0.197007     -1.113280      0.405993
  C      -0.712449     -0.428784     -0.373690
  C      -0.305885      0.782352     -0.935028
  C       0.960165      1.273364     -0.727718
  C      -2.116745     -0.933564     -0.573400
  C      -3.038406     -0.411600      0.483494
  C      -4.144436      0.275564      0.251986
  H       4.268577     -0.527337      0.584337
  H       3.687216      0.348488      2.023622
  H       4.937314      1.066454      0.988032
  H       2.157048     -1.207799      1.245619
  H      -0.084497     -2.057345      0.855788
  H      -1.002589      1.346851     -1.540861
  H       1.290573      2.207406     -1.159862
  H      -2.109281     -2.025142     -0.545141
  H      -2.480399     -0.642691     -1.558569
  H      -2.738866     -0.614854      1.506961
  H      -4.770885      0.639974      1.055343
  H      -4.473497      0.502628     -0.755657
23
Coordinates from ORCA-job ./output/estragole/estragole E -80.212228028024
  C       4.049334      0.451716      0.979268
  O       3.090135      1.131019      0.213048
  C       1.867040      0.569714      0.068448
  C       1.495366     -0.642910      0.621645
  C       0.211855     -1.128016      0.402841
  C      -0.708090     -0.430433     -0.353249
  C      -0.314865      0.788967     -0.896518
  C       0.952101      1.284970     -0.694844
  C      -2.112466     -0.939033     -0.546252
  C      -3.052114     -0.385975      0.482506
  C      -4.161361      0.279528      0.207335
  H       4.281602     -0.522683      0.547359
  H       3.713846      0.324487      2.009418
  H       4.942203      1.068310      0.968768
  H       2.181483     -1.225025      1.216079
  H      -0.062252     -2.081608      0.836096
  H      -1.020019      1.359300     -1.487104
  H       1.264573      2.228887     -1.118080
  H      -2.107799     -2.028531     -0.482769
  H      -2.471008     -0.683971     -1.542907
  H      -2.770440     -0.550219      1.517694
  H      -4.803136      0.659316      0.990981
  H      -4.465989      0.472191     -0.814648
23
Coordinates from ORCA-job ./output/estragole/estragole E -80.212332396458
  C       4.064029      0.445516      0.958096
  O       3.090295      1.136523      0.221746
  C       1.868409      0.572130      0.079942
  C       1.510084     -0.655458      0.610963
  C       0.227473     -1.143296      0.400238
  C      -0.706996     -0.433221     -0.327929
  C      -0.327895      0.798282     -0.848910
  C       0.939871      1.298465     -0.654584
  C      -2.109621     -0.946794     -0.515419
  C      -3.066545     -0.355492      0.474958
  C      -4.179857      0.282420      0.153210
  H       4.297853     -0.517238      0.501547
  H       3.746840      0.292934      1.990653
  H       4.952473      1.068862      0.947798
  H       2.209683     -1.244776      1.182464
  H      -0.037353     -2.107522      0.815008
  H      -1.043698      1.377563     -1.417837
  H       1.234224      2.253807     -1.064566
  H      -2.108713     -2.033049     -0.408271
  H      -2.458769     -0.733092     -1.525619
  H      -2.797725     -0.465725      1.520814
  H      -4.834876      0.688017      0.912510
  H      -4.469188      0.421146     -0.881695
23
Coordinates from ORCA-job ./output/estragole/estragole E -80.212455829501
  C       4.085527      0.439534      0.922260
  O       3.088086      1.146852      0.234440
  C       1.868566      0.575036      0.099265
  C       1.532493     -0.674413      0.594410
  C       0.250732     -1.167451      0.396501
  C      -0.708297     -0.442203     -0.285597
  C      -0.351362      0.809756     -0.770625
  C       0.916143      1.316887     -0.588337
  C      -2.107074     -0.964835     -0.466182
  C      -3.088905     -0.312997      0.457640
  C      -4.197577      0.294542      0.066598
  H       4.319073     -0.504247      0.427145
  H       3.796480      0.246146      1.956434
  H       4.967486      1.072505      0.913160
  H       2.252954     -1.273609      1.128974
  H       0.002121     -2.147571      0.782888
  H      -1.084813      1.402803     -1.302068
  H       1.184366      2.289747     -0.974027
  H      -2.111938     -2.041981     -0.288462
  H      -2.436590     -0.818131     -1.495646
  H      -2.845131     -0.347904      1.515030
  H      -4.870685      0.744800      0.783671
  H      -4.461656      0.356735     -0.982356
23
Coordinates from ORCA-job ./output/estragole/estragole E -80.212591835514
  C       4.111860      0.434284      0.867943
  O       3.082211      1.160557      0.250197
  C       1.866109      0.577807      0.126859
  C       1.561248     -0.698437      0.571251
  C       0.279601     -1.198894      0.392894
  C      -0.712602     -0.456889     -0.221383
  C      -0.385961      0.822703     -0.655671
  C       0.880233      1.338589     -0.491575
  C      -2.106118     -0.992337     -0.395453
  C      -3.117774     -0.259456      0.427281
  C      -4.208099      0.314098     -0.056914
  H       4.339952     -0.481543      0.320078
  H       3.861611      0.185408      1.900607
  H       4.985637      1.078798      0.860486
  H       2.308670     -1.309805      1.052760
  H       0.054346     -2.199059      0.740219
  H      -1.143855      1.432592     -1.131111
  H       1.117144      2.333678     -0.839118
  H      -2.120743     -2.048462     -0.118909
  H      -2.402569     -0.941905     -1.444935
  H      -2.913530     -0.198962      1.492104
  H      -4.903219      0.827561      0.593545
  H      -4.434154      0.279676     -1.116040
23
Coordinates from ORCA-job ./output/estragole/estragole E -80.212691205325
  C       4.130440      0.432392      0.816901
  O       3.074757      1.171391      0.260476
  C       1.861732      0.579167      0.150248
  C       1.582835     -0.716232      0.551730
  C       0.300076     -1.222358      0.392429
  C      -0.718412     -0.469323     -0.160570
  C      -0.416472      0.831868     -0.552788
  C       0.848359      1.353579     -0.406375
  C      -2.107684     -1.017167     -0.332461
  C      -3.141372     -0.221636      0.397813
  C      -4.203472      0.333045     -0.164635
  H       4.349182     -0.458607      0.225763
  H       3.912972      0.138721      1.845318
  H       4.997933      1.085256      0.809758
  H       2.350163     -1.337385      0.987193
  H       0.094954     -2.237350      0.708095
  H      -1.194364      1.453133     -0.978379
  H       1.065382      2.364884     -0.718603
  H      -2.131276     -2.047963      0.026469
  H      -2.370525     -1.050377     -1.391973
  H      -2.977730     -0.094167      1.463843
  H      -4.915860      0.897412      0.421881
  H      -4.391620      0.231721     -1.227017
23
Coordinates from ORCA-job ./output/estragole/estragole E -80.212742821268
  C       4.134167      0.433026      0.798679
  O       3.070645      1.174923      0.261057
  C       1.858729      0.579585      0.157352
  C       1.588134     -0.719977      0.547850
  C       0.304018     -1.227391      0.394987
  C      -0.721046     -0.472264     -0.139403
  C      -0.426921      0.835247     -0.521403
  C       0.837384      1.357333     -0.380862
  C      -2.108672     -1.027778     -0.313531
  C      -3.149272     -0.216290      0.389116
  C      -4.195739      0.342601     -0.196945
  H       4.347757     -0.450356      0.194498
  H       3.925712      0.127156      1.825318
  H       4.999997      1.087794      0.790823
  H       2.358867     -1.345447      0.970547
  H       0.106260     -2.246149      0.703590
  H      -1.210786      1.457935     -0.932961
  H       1.055356      2.372083     -0.681483
  H      -2.131409     -2.049505      0.069964
  H      -2.356965     -1.087112     -1.375106
  H      -3.003023     -0.080929      1.456616
  H      -4.914723      0.920774      0.367855
  H      -4.368470      0.234744     -1.261442
23
Coordinates from ORCA-job ./output/estragole/estragole E -80.212757708693
  C       4.132386      0.433306      0.799331
  O       3.069428      1.174716      0.260113
  C       1.857690      0.579524      0.156665
  C       1.587501     -0.719306      0.548616
  C       0.302818     -1.226503      0.394744
  C      -0.720357     -0.471079     -0.141189
  C      -0.426996      0.836199     -0.524614
  C       0.837330      1.357198     -0.382973
  C      -2.108473     -1.028602     -0.315256
  C      -3.148420     -0.218152      0.390514
  C      -4.194124      0.343351     -0.193802
  H       4.345520     -0.450263      0.195471
  H       3.922370      0.129176      1.826027
  H       4.998157      1.087961      0.791364
  H       2.355702     -1.346657      0.972849
  H       0.106030     -2.244939      0.704777
  H      -1.211129      1.457527     -0.937382
  H       1.061257      2.371030     -0.682526
  H      -2.127743     -2.049971      0.068794
  H      -2.355851     -1.088897     -1.376630
  H      -3.001713     -0.087531      1.458400
  H      -4.914066      0.920787      0.370654
  H      -4.367318      0.241128     -1.258832
23
Coordinates from ORCA-job ./output/estragole/estragole E -80.212759288779
  C       4.132274      0.433131      0.798812
  O       3.069069      1.174815      0.260546
  C       1.857507      0.579471      0.156859
  C       1.587993     -0.719911      0.547582
  C       0.303267     -1.227162      0.393874
  C      -0.719921     -0.470747     -0.140766
  C      -0.427414      0.836638     -0.523088
  C       0.837018      1.357604     -0.381500
  C      -2.108411     -1.028301     -0.313707
  C      -3.148667     -0.216667      0.390502
  C      -4.194287      0.343020     -0.195674
  H       4.345695     -0.449686      0.194027
  H       3.922925      0.128327      1.825403
  H       4.997661      1.088313      0.790976
  H       2.355965     -1.348268      0.970718
  H       0.107127     -2.245979      0.702820
  H      -1.212230      1.457838     -0.934812
  H       1.061833      2.371599     -0.679813
  H      -2.127409     -2.048726      0.072748
  H      -2.355941     -1.091170     -1.374894
  H      -3.002366     -0.083945      1.458161
  H      -4.915143      0.921087      0.366981
  H      -4.366547      0.238721     -1.260639
23
Coordinates from ORCA-job ./output/estragole/estragole E -80.212759592879
  C       4.132560      0.432833      0.798268
  O       3.069229      1.174874      0.260735
  C       1.857625      0.579548      0.157078
  C       1.588250     -0.720138      0.547145
  C       0.303490     -1.227261      0.393747
  C      -0.719817     -0.470231     -0.140088
  C      -0.427508      0.837105     -0.521914
  C       0.837083      1.358017     -0.380566
  C      -2.108373     -1.027794     -0.312636
  C      -3.149251     -0.216029      0.390469
  C      -4.194791      0.342429     -0.197050
  H       4.346125     -0.449569      0.192949
  H       3.923791      0.127495      1.824814
  H       4.997807      1.088246      0.790480
  H       2.356127     -1.349086      0.969586
  H       0.107557     -2.246266      0.702124
  H      -1.212612      1.458231     -0.933222
  H       1.062278      2.372053     -0.678453
  H      -2.127379     -2.047874      0.074769
  H      -2.356070     -1.091681     -1.373742
  H      -3.003632     -0.082218      1.458080
  H      -4.916480      0.920449      0.364593
  H      -4.366009      0.236868     -1.262051
