26
Coordinates from ORCA-job ./output/_z_beta_ocimene/_z_beta_ocimene E -66.571671595607
  C          -2.67911951816794     -0.51455050349456     -0.59002945863177
  C          -2.22664689561956      0.60861138424644      0.28982845629758
  C          -1.19739320737456      1.41073810645957      0.03579981207833
  C          -0.26347790536260      1.37472798715475     -1.13747326136046
  C           1.17519954909307      1.37191533913000     -0.70590636280148
  C           1.87856157689850      0.31241544650759     -0.30310403568078
  C           1.31741356023541     -1.07105974525398     -0.22784877891816
  C           3.27549732846033      0.50769080412286      0.09490257510079
  C           4.10542722640953     -0.43945227001545      0.51546897828930
  C          -3.04346317801847      0.78285937048448      1.53370296354826
  H          -3.71865835534447     -0.36484222162558     -0.88697424014183
  H          -2.09033352976188     -0.62058388694301     -1.49573624824979
  H          -2.64245481196407     -1.46077138628185     -0.04690898815673
  H          -0.97714921179253      2.18653960018244      0.76285642697919
  H          -0.46765297031150      0.51877272677695     -1.77581602824342
  H          -0.43636703815583      2.25935336745597     -1.75410166925145
  H           1.67545912725538      2.33482347073992     -0.70038863580877
  H           1.38631686643160     -1.45241211852343      0.79112849647881
  H           0.27339629873716     -1.10524797050743     -0.52127812783774
  H           1.87910951247778     -1.75174759659622     -0.86818656947185
  H           3.63966945339249      1.52731485633457      0.02887337232492
  H           3.80369653627764     -1.47475995703937      0.60291204319750
  H           5.12448983032285     -0.20216887368278      0.78785674693689
  H          -2.67688084663555      1.60428698675917      2.14532222384645
  H          -3.02629818808514     -0.12614824374283      2.13754056100325
  H          -4.08834120939764      0.97942032735178      1.28755874847295
