! wB97X-3c OPT FREQ TightSCF
%pal
  nprocs 40
end
* xyz 0 1
C     -3.185961     0.082845    -1.011948
C     -2.463006     0.582492     0.216318
C     -1.142282     0.859349     0.194137
C     -0.286362     0.694874    -1.038394
C      1.146666     1.061043    -0.758506
C      2.032536     0.263008    -0.128179
C      1.657360    -1.121190     0.353599
C      3.427170     0.754387     0.018541
C      4.464759    -0.038497     0.288363
C     -3.222437     0.778915     1.502691
H     -4.264696    -0.082639    -0.810601
H     -3.101260     0.827364    -1.831120
H     -2.747958    -0.882027    -1.343080
H     -0.668955     1.214327     1.107797
H     -0.345662    -0.344077    -1.427607
H     -0.671158     1.374397    -1.828641
H      1.471272     2.032876    -1.114590
H      2.220692    -1.377060     1.274873
H      0.584681    -1.200291     0.620075
H      1.890162    -1.864633    -0.436968
H      3.628349     1.809182    -0.131349
H      4.357379    -1.107833     0.407767
H      5.457053     0.385936     0.369881
H     -2.787544     0.135697     2.296891
H     -4.294840     0.515828     1.390910
H     -3.155958     1.841452     1.819139
*
