! wB97X-3c OPT FREQ TightSCF
%pal
  nprocs 40
end
* xyz 0 1
C      0.744404    -1.933800    -1.495146
C      0.829482    -1.607606    -0.022862
C      1.956793    -1.103524     0.525914
C      3.111176    -0.518428    -0.264326
C      2.798670     0.865642    -0.891635
C      1.709186     1.608041    -0.140235
C      0.440939     1.527500    -0.603157
C     -0.792938     1.707375     0.239329
C     -1.525765     0.370159     0.340579
C     -2.585347     0.075838    -0.479713
C     -3.015290     1.023258    -1.579931
C     -3.374131    -1.210519    -0.356374
C     -1.027350    -0.601650     1.414149
C     -0.360700    -1.888420     0.873048
C      2.038135     2.195180     1.210333
H      1.495907    -2.710628    -1.748212
H      0.933192    -1.036015    -2.113172
H     -0.259329    -2.322204    -1.765660
H      2.001663    -0.979312     1.604998
H      3.444900    -1.230489    -1.048998
H      3.965048    -0.393473     0.436259
H      3.723587     1.481913    -0.899373
H      2.518476     0.730216    -1.958847
H      0.271658     1.137968    -1.602182
H     -1.416964     2.503134    -0.212007
H     -0.563649     2.079500     1.257805
H     -3.787073     0.567059    -2.234939
H     -2.150781     1.281533    -2.226450
H     -3.448865     1.945582    -1.140058
H     -4.395446    -1.087351    -0.774109
H     -3.508684    -1.516861     0.699795
H     -2.874516    -2.015219    -0.932342
H     -0.291586    -0.090405     2.070579
H     -1.865361    -0.875985     2.087710
H     -0.018468    -2.497613     1.738026
H     -1.104195    -2.518226     0.351311
H      3.136009     2.209271     1.375688
H      1.580568     1.588681     2.018891
H      1.666647     3.239877     1.268177
*
