39
Coordinates from ORCA-job ./output/germacrene_b/germacrene_b E -99.895468164799
  C           0.65528625440142     -1.79712761422766     -1.46772239142993
  C           0.86991128190704     -1.58907731118870     -0.00342811694924
  C           2.00074832501050     -1.13935457770806      0.52673362383819
  C           3.16760548358112     -0.53517848282753     -0.19900005680195
  C           2.83573109416966      0.84588067777444     -0.83397311639134
  C           1.73428998911646      1.54252361277303     -0.08878235514150
  C           0.49941751549608      1.48730971688154     -0.57588371390121
  C          -0.79973476786929      1.72290395483316      0.12638162723674
  C          -1.53869072840263      0.40496074185555      0.26335243493640
  C          -2.58461570708477      0.07966760248758     -0.50069211620019
  C          -3.11351530835707      0.92525617965326     -1.62234318408595
  C          -3.36126347863867     -1.19249429773288     -0.32681715126215
  C          -1.00386285360714     -0.52038752971311      1.33917078800359
  C          -0.32693449826949     -1.82365514026773      0.88238061047483
  C           2.10372395083921      2.09095984228302      1.25207473522166
  H           0.41539450119842     -2.84485476121136     -1.66059462833289
  H           1.52687178740090     -1.53767181188829     -2.06330838417275
  H          -0.19371911645474     -1.20975606378988     -1.81918906026342
  H           2.02531100936136     -1.04509952583183      1.60866408500159
  H           3.53712892716081     -1.19628889424652     -0.98381684620304
  H           3.99215566240081     -0.41978267048719      0.50418002168878
  H           3.74610903871612      1.44828334362341     -0.86282540199795
  H           2.52114846161397      0.69897807073052     -1.86638357008082
  H           0.38319987608301      1.06342091809209     -1.56827013049385
  H          -1.40519785441138      2.45106248546642     -0.40811619203321
  H          -0.64072024067819      2.13247526163422      1.12320930827202
  H          -3.29577720578174      0.30147809027094     -2.49928224906109
  H          -2.44448476412916      1.72377508409183     -1.92540472936918
  H          -4.07414313330971      1.36954908615800     -1.35253538059172
  H          -4.43057485393620     -0.98698395889791     -0.39977194216702
  H          -3.18155256977934     -1.68088811309324      0.62608129329139
  H          -3.12621610030721     -1.90577184692449     -1.12016708517711
  H          -0.27490865235483      0.03109585555725      1.93386850365168
  H          -1.81194075286198     -0.78046248937038      2.02720463597663
  H          -0.01863721652171     -2.36392900198547      1.77938981456682
  H          -1.04866485381429     -2.45990354574841      0.37035973062119
  H           2.89873926009390      2.83094589135643      1.14513271014948
  H           2.49121541604132      1.30698590048432      1.90505836691826
  H           1.27116882197747      2.57115432113360      1.75792851225825
