27
Coordinates from ORCA-job ./output/_e_tagetone/_e_tagetone E -82.639359159483
  C       1.849048      0.192797      1.298681
  C       2.371892      0.333490     -0.139030
  C       3.858429     -0.039228     -0.195053
  C       1.567426     -0.540185     -1.123611
  C       0.144985     -0.070757     -1.247820
  O      -0.105224      0.935316     -1.965031
  C      -0.941138     -0.807845     -0.560950
  C      -2.132542     -0.289896     -0.196746
  C      -3.170331     -1.212888      0.392363
  C      -2.441387      1.156666     -0.337977
  C      -3.681701      1.616318     -0.499527
  H       1.886721     -0.867906      1.627807
  H       2.463784      0.805140      1.992435
  H       0.801829      0.554853      1.368951
  H       2.278639      1.400051     -0.443463
  H       4.443958      0.611033      0.489545
  H       4.251988      0.104793     -1.223934
  H       4.008152     -1.099844      0.101471
  H       1.599733     -1.604273     -0.801141
  H       2.035473     -0.491236     -2.131303
  H      -0.746646     -1.853155     -0.350039
  H      -3.849513     -1.566917     -0.411125
  H      -2.704181     -2.094611      0.882753
  H      -3.765551     -0.683042      1.165898
  H      -1.637689      1.880413     -0.296388
  H      -3.854260      2.681081     -0.588159
  H      -4.531896      0.949831     -0.563159
27
Coordinates from ORCA-job ./output/_e_tagetone/_e_tagetone E -82.648350313288
  C       1.810954      0.159968      1.284907
  C       2.359141      0.319301     -0.129075
  C       3.834645     -0.056115     -0.178879
  C       1.570150     -0.517167     -1.137433
  C       0.152894     -0.040347     -1.265010
  O      -0.080342      0.978274     -1.901257
  C      -0.915466     -0.780205     -0.577214
  C      -2.100924     -0.272208     -0.207662
  C      -3.118985     -1.174067      0.425312
  C      -2.443943      1.143949     -0.397138
  C      -3.695402      1.579755     -0.491958
  H       1.839065     -0.886262      1.593711
  H       2.404192      0.742305      1.989748
  H       0.781119      0.511527      1.351217
  H       2.266717      1.369241     -0.417782
  H       4.408667      0.562840      0.510483
  H       4.238386      0.094871     -1.180501
  H       3.977679     -1.102112      0.097454
  H       1.599996     -1.570167     -0.845682
  H       2.035522     -0.432276     -2.119588
  H      -0.703142     -1.817519     -0.349187
  H      -3.812017     -1.537469     -0.333991
  H      -2.646442     -2.031809      0.897840
  H      -3.686949     -0.644785      1.188258
  H      -1.641201      1.862750     -0.470848
  H      -3.893549      2.632070     -0.638925
  H      -4.540766      0.905656     -0.451351
27
Coordinates from ORCA-job ./output/_e_tagetone/_e_tagetone E -82.649643964334
  C       1.884251      0.212032      1.304476
  C       2.413853      0.313199     -0.117337
  C       3.863843     -0.134472     -0.189170
  C       1.567749     -0.493762     -1.099791
  C       0.167082      0.048326     -1.205522
  O      -0.034230      1.053413     -1.848167
  C      -0.916827     -0.719319     -0.570295
  C      -2.127013     -0.250471     -0.233021
  C      -3.129598     -1.182734      0.374584
  C      -2.529590      1.143010     -0.431697
  C      -3.796334      1.538508     -0.472292
  H       1.872114     -0.824329      1.638507
  H       2.513926      0.777533      1.986837
  H       0.874177      0.604361      1.387005
  H       2.362653      1.356502     -0.429420
  H       4.483057      0.461839      0.476354
  H       4.257348     -0.027874     -1.197106
  H       3.962550     -1.178070      0.104892
  H       1.559594     -1.541510     -0.799907
  H       2.011590     -0.431868     -2.090283
  H      -0.683191     -1.749482     -0.330711
  H      -3.826681     -1.525093     -0.387189
  H      -2.642889     -2.053075      0.800138
  H      -3.699360     -0.693537      1.157523
  H      -1.748859      1.873531     -0.574225
  H      -4.038956      2.578899     -0.636348
  H      -4.620264      0.844441     -0.372387
27
Coordinates from ORCA-job ./output/_e_tagetone/_e_tagetone E -82.650739971800
  C       1.846532      0.230560      1.284477
  C       2.420604      0.301525     -0.118138
  C       3.858989     -0.177456     -0.145553
  C       1.583245     -0.488806     -1.121552
  C       0.187001      0.079667     -1.259014
  O       0.025955      1.132608     -1.817739
  C      -0.897416     -0.685923     -0.609714
  C      -2.113126     -0.235181     -0.267488
  C      -3.085117     -1.174108      0.376965
  C      -2.566860      1.134191     -0.500009
  C      -3.833225      1.520267     -0.404135
  H       1.811708     -0.800830      1.637314
  H       2.462491      0.795295      1.981712
  H       0.836728      0.630680      1.337712
  H       2.396209      1.341950     -0.447651
  H       4.477357      0.406101      0.534167
  H       4.287639     -0.095522     -1.142111
  H       3.928313     -1.221132      0.161627
  H       1.556672     -1.537824     -0.827722
  H       2.046167     -0.417888     -2.103785
  H      -0.646193     -1.704764     -0.342557
  H      -3.846143     -1.477499     -0.340828
  H      -2.581990     -2.071916      0.721944
  H      -3.593226     -0.711168      1.216920
  H      -1.815657      1.845171     -0.804339
  H      -4.114299      2.544326     -0.607094
  H      -4.632361      0.837674     -0.147962
27
Coordinates from ORCA-job ./output/_e_tagetone/_e_tagetone E -82.651469866863
  C       1.894668      0.249789      1.300587
  C       2.448904      0.303623     -0.111545
  C       3.877504     -0.204872     -0.157128
  C       1.578577     -0.476351     -1.097086
  C       0.188780      0.117492     -1.206759
  O       0.036093      1.185148     -1.756025
  C      -0.904136     -0.663918     -0.587287
  C      -2.138710     -0.236696     -0.283030
  C      -3.103882     -1.191889      0.350381
  C      -2.609801      1.124077     -0.546448
  C      -3.871896      1.513605     -0.410587
  H       1.851267     -0.779963      1.662859
  H       2.528688      0.811732      1.986361
  H       0.889087      0.664119      1.365736
  H       2.439821      1.344363     -0.446691
  H       4.519081      0.368519      0.512267
  H       4.294535     -0.136363     -1.161678
  H       3.930524     -1.250342      0.153916
  H       1.539868     -1.526200     -0.802702
  H       2.024170     -0.414113     -2.090447
  H      -0.644340     -1.678142     -0.313429
  H      -3.884914     -1.464284     -0.360691
  H      -2.601186     -2.106715      0.654180
  H      -3.590582     -0.753472      1.218769
  H      -1.870230      1.824761     -0.902672
  H      -4.161588      2.531600     -0.632066
  H      -4.660303      0.844492     -0.093338
27
Coordinates from ORCA-job ./output/_e_tagetone/_e_tagetone E -82.651871172464
  C       1.941349      0.275875      1.313823
  C       2.475931      0.306189     -0.107474
  C       3.894690     -0.229555     -0.167166
  C       1.574694     -0.471411     -1.067676
  C       0.194850      0.145682     -1.155788
  O       0.062131      1.231010     -1.683091
  C      -0.910985     -0.641210     -0.566652
  C      -2.165873     -0.239060     -0.306839
  C      -3.123867     -1.210062      0.311520
  C      -2.654005      1.111692     -0.596120
  C      -3.907814      1.506128     -0.406108
  H       1.892243     -0.748704      1.690865
  H       2.589939      0.840640      1.984017
  H       0.940676      0.702479      1.385900
  H       2.480048      1.343262     -0.453918
  H       4.556670      0.338509      0.487173
  H       4.298970     -0.179152     -1.178591
  H       3.932962     -1.273011      0.154097
  H       1.523017     -1.518098     -0.764099
  H       2.003115     -0.428004     -2.070376
  H      -0.645947     -1.651532     -0.285328
  H      -3.940887     -1.425161     -0.378609
  H      -2.630901     -2.149753      0.548023
  H      -3.563935     -0.808186      1.223085
  H      -1.929881      1.800356     -1.002937
  H      -4.207431      2.518641     -0.639985
  H      -4.679761      0.852432     -0.022299
27
Coordinates from ORCA-job ./output/_e_tagetone/_e_tagetone E -82.652027719523
  C       1.982650      0.285753      1.328474
  C       2.491703      0.309391     -0.103166
  C       3.907014     -0.233681     -0.186134
  C       1.568401     -0.469913     -1.040028
  C       0.193210      0.155729     -1.107633
  O       0.069450      1.256375     -1.605919
  C      -0.920003     -0.634060     -0.541845
  C      -2.186753     -0.245589     -0.319603
  C      -3.149117     -1.220852      0.282534
  C      -2.675151      1.100140     -0.629730
  C      -3.922936      1.502730     -0.418158
  H       1.939061     -0.736795      1.710389
  H       2.642675      0.853947      1.984108
  H       0.984457      0.715448      1.413460
  H       2.494126      1.344625     -0.452916
  H       4.582627      0.334826      0.453343
  H       4.292409     -0.187942     -1.204987
  H       3.945808     -1.275712      0.138410
  H       1.515304     -1.514203     -0.728820
  H       1.979251     -0.440011     -2.050406
  H      -0.653948     -1.643047     -0.255696
  H      -3.989404     -1.389296     -0.391343
  H      -2.671785     -2.178013      0.475125
  H      -3.553967     -0.842445      1.220700
  H      -1.954292      1.778941     -1.058638
  H      -4.222678      2.512326     -0.664543
  H      -4.688115      0.861324     -0.001531
27
Coordinates from ORCA-job ./output/_e_tagetone/_e_tagetone E -82.652070805614
  C       2.011709      0.290306      1.337770
  C       2.503285      0.309234     -0.100101
  C       3.915327     -0.239486     -0.200329
  C       1.564528     -0.468239     -1.021625
  C       0.192938      0.165367     -1.078026
  O       0.077239      1.276477     -1.552526
  C      -0.925560     -0.626365     -0.527362
  C      -2.198119     -0.245049     -0.325666
  C      -3.163124     -1.223238      0.266014
  C      -2.690761      1.096709     -0.644587
  C      -3.939564      1.495397     -0.431013
  H       1.969404     -0.731115      1.721522
  H       2.680941      0.858160      1.983687
  H       1.016575      0.724356      1.432297
  H       2.504901      1.343394     -0.451506
  H       4.600533      0.328472      0.428777
  H       4.287039     -0.196355     -1.223978
  H       3.954198     -1.280613      0.125703
  H       1.509146     -1.510437     -0.704399
  H       1.963484     -0.448278     -2.036719
  H      -0.659842     -1.634981     -0.238439
  H      -4.010212     -1.374943     -0.402136
  H      -2.690675     -2.185390      0.443100
  H      -3.556543     -0.854504      1.212750
  H      -1.973187      1.775491     -1.077776
  H      -4.243827      2.502117     -0.683552
  H      -4.699834      0.853512     -0.006433
27
Coordinates from ORCA-job ./output/_e_tagetone/_e_tagetone E -82.652099117264
  C       2.046824      0.292429      1.348547
  C       2.515779      0.309163     -0.096961
  C       3.924110     -0.244484     -0.220460
  C       1.558604     -0.465030     -1.000765
  C       0.190039      0.176067     -1.041578
  O       0.079480      1.297905     -1.489407
  C      -0.932640     -0.620148     -0.507702
  C      -2.209525     -0.243836     -0.325940
  C      -3.179909     -1.225290      0.251480
  C      -2.703888      1.095302     -0.652896
  C      -3.957503      1.487223     -0.454699
  H       2.006817     -0.728786      1.732308
  H       2.727731      0.858549      1.983319
  H       1.055253      0.730968      1.456794
  H       2.515158      1.343095     -0.448166
  H       4.620735      0.322175      0.396839
  H       4.278305     -0.201700     -1.250081
  H       3.964698     -1.285472      0.104967
  H       1.502088     -1.505445     -0.678145
  H       1.941798     -0.454151     -2.022002
  H      -0.668353     -1.629173     -0.218316
  H      -4.022657     -1.373844     -0.422038
  H      -2.708079     -2.187362      0.429492
  H      -3.578421     -0.859461      1.197140
  H      -1.984808      1.778574     -1.076053
  H      -4.263745      2.491944     -0.712575
  H      -4.717896      0.840787     -0.037654
27
Coordinates from ORCA-job ./output/_e_tagetone/_e_tagetone E -82.652132120630
  C       2.103749      0.299317      1.363794
  C       2.536841      0.308888     -0.092926
  C       3.936414     -0.257647     -0.251780
  C       1.548508     -0.457916     -0.967419
  C       0.185851      0.197929     -0.981886
  O       0.085384      1.336265     -1.386789
  C      -0.943749     -0.607360     -0.476795
  C      -2.227039     -0.240069     -0.324404
  C      -3.203426     -1.230283      0.228217
  C      -2.726766      1.094418     -0.662010
  C      -3.988557      1.473576     -0.491476
  H       2.064932     -0.720833      1.750136
  H       2.804216      0.861700      1.980126
  H       1.118879      0.746839      1.493675
  H       2.536140      1.342075     -0.445769
  H       4.653098      0.304405      0.346301
  H       4.263796     -0.218579     -1.290263
  H       3.976202     -1.298407      0.074074
  H       1.488209     -1.495643     -0.637063
  H       1.904991     -0.460338     -1.998584
  H      -0.681244     -1.617090     -0.188261
  H      -4.032338     -1.383143     -0.460789
  H      -2.727793     -2.188878      0.414107
  H      -3.621427     -0.868655      1.167028
  H      -2.006207      1.785772     -1.068747
  H      -4.298955      2.474752     -0.757769
  H      -4.749711      0.818904     -0.089278
27
Coordinates from ORCA-job ./output/_e_tagetone/_e_tagetone E -82.652186913985
  C       2.206130      0.314190      1.388343
  C       2.570351      0.310535     -0.087264
  C       3.952116     -0.277551     -0.310306
  C       1.528179     -0.445782     -0.904390
  C       0.175593      0.232012     -0.868798
  O       0.090466      1.395623     -1.197544
  C      -0.965168     -0.589935     -0.418096
  C      -2.257427     -0.236556     -0.318199
  C      -3.245670     -1.242471      0.184466
  C      -2.760053      1.092471     -0.672525
  C      -4.033556      1.453725     -0.557942
  H       2.172999     -0.703593      1.781509
  H       2.940831      0.871524      1.968354
  H       1.233796      0.775248      1.559301
  H       2.567193      1.341965     -0.444674
  H       4.704258      0.276469      0.250614
  H       4.229811     -0.246020     -1.363495
  H       3.992502     -1.317764      0.017339
  H       1.464746     -1.478877     -0.560392
  H       1.833287     -0.469969     -1.952333
  H      -0.706688     -1.601821     -0.134144
  H      -4.039334     -1.408064     -0.541884
  H      -2.764255     -2.193477      0.393242
  H      -3.711521     -0.887021      1.102964
  H      -2.032558      1.797097     -1.042593
  H      -4.344941      2.451078     -0.836759
  H      -4.801087      0.786963     -0.189346
27
Coordinates from ORCA-job ./output/_e_tagetone/_e_tagetone E -82.652355750462
  C       2.452711      0.354381      1.434271
  C       2.628829      0.319841     -0.075267
  C       3.957503     -0.305213     -0.460454
  C       1.473393     -0.424708     -0.730027
  C       0.144338      0.285449     -0.567475
  O       0.092634      1.488892     -0.702192
  C      -1.021959     -0.567825     -0.263170
  C      -2.323599     -0.237531     -0.300115
  C      -3.341421     -1.274814      0.063417
  C      -2.812950      1.085479     -0.692506
  C      -4.098669      1.420627     -0.717357
  H       2.453566     -0.656426      1.847006
  H       3.261515      0.908757      1.909258
  H       1.515879      0.836121      1.712884
  H       2.601775      1.345419     -0.446728
  H       4.786321      0.237090     -0.006033
  H       4.102043     -0.292164     -1.540703
  H       4.015843     -1.342518     -0.125619
  H       1.423097     -1.446038     -0.350271
  H       1.641083     -0.498765     -1.808086
  H      -0.779404     -1.587661      0.004758
  H      -4.034608     -1.455213     -0.756368
  H      -2.863517     -2.214705      0.324685
  H      -3.925890     -0.940037      0.919893
  H      -2.065476      1.812045     -0.968975
  H      -4.396441      2.413860     -1.023894
  H      -4.886596      0.735656     -0.435483
27
Coordinates from ORCA-job ./output/_e_tagetone/_e_tagetone E -82.652392496287
  C       2.690556      0.398305      1.452427
  C       2.647200      0.335996     -0.066120
  C       3.906749     -0.297990     -0.627771
  C       1.410680     -0.421440     -0.522171
  C       0.103210      0.287086     -0.215398
  O       0.077840      1.496600     -0.134558
  C      -1.084970     -0.580448     -0.080023
  C      -2.373334     -0.250473     -0.269223
  C      -3.421577     -1.303810     -0.071530
  C      -2.817285      1.076926     -0.698020
  C      -4.089777      1.408370     -0.890711
  H       2.760657     -0.604782      1.879167
  H       3.553591      0.967023      1.798213
  H       1.798028      0.879520      1.851699
  H       2.563551      1.354496     -0.447265
  H       4.792526      0.248812     -0.304461
  H       3.896353     -0.301347     -1.718229
  H       4.013844     -1.330945     -0.290001
  H       1.410385     -1.430901     -0.108244
  H       1.419399     -0.543299     -1.611147
  H      -0.871032     -1.611903      0.165075
  H      -3.975716     -1.494942     -0.989559
  H      -2.975577     -2.237462      0.260319
  H      -4.137122     -0.979787      0.683711
  H      -2.046140      1.814505     -0.856865
  H      -4.347685      2.404466     -1.222640
  H      -4.904356      0.717424     -0.721229
27
Coordinates from ORCA-job ./output/_e_tagetone/_e_tagetone E -82.651041665622
  C       2.680639      0.466522      1.429002
  C       2.649875      0.342252     -0.085799
  C       3.900613     -0.353523     -0.588217
  C       1.403908     -0.407937     -0.548231
  C       0.089206      0.311384     -0.278513
  O       0.030802      1.530561     -0.289186
  C      -1.080007     -0.589012     -0.134574
  C      -2.379035     -0.260594     -0.236197
  C      -3.406926     -1.342058     -0.081716
  C      -2.829677      1.091290     -0.569938
  C      -4.086292      1.440305     -0.814452
  H       2.723098     -0.517990      1.909071
  H       3.562293      1.017317      1.765840
  H       1.800891      0.981379      1.818503
  H       2.602702      1.345902     -0.516080
  H       4.805959      0.163713     -0.262392
  H       3.926938     -0.415837     -1.679949
  H       3.968670     -1.378058     -0.206392
  H       1.364298     -1.415644     -0.128525
  H       1.431917     -0.533101     -1.640180
  H      -0.840556     -1.624431      0.056493
  H      -3.787123     -1.628370     -1.069532
  H      -2.970976     -2.239401      0.355658
  H      -4.259126     -1.029944      0.520796
  H      -2.049823      1.838156     -0.636888
  H      -4.334492      2.459721     -1.077053
  H      -4.917779      0.747397     -0.766100
27
Coordinates from ORCA-job ./output/_e_tagetone/_e_tagetone E -82.652486850685
  C       2.624603      0.427018      1.436735
  C       2.645990      0.330609     -0.080258
  C       3.924098     -0.327576     -0.567109
  C       1.427739     -0.428415     -0.584746
  C       0.113534      0.288860     -0.341919
  O       0.075043      1.502265     -0.343623
  C      -1.066411     -0.583352     -0.160196
  C      -2.363169     -0.249080     -0.267810
  C      -3.399504     -1.310795     -0.054739
  C      -2.822769      1.093899     -0.627011
  C      -4.097384      1.425094     -0.801025
  H       2.664884     -0.566223      1.890703
  H       3.481065      0.991059      1.807050
  H       1.722991      0.925322      1.792439
  H       2.590732      1.341149     -0.489250
  H       4.801702      0.214149     -0.213266
  H       3.968461     -0.359127     -1.656685
  H       4.003981     -1.353994     -0.201619
  H       1.399131     -1.434336     -0.161759
  H       1.488336     -0.555890     -1.671151
  H      -0.838376     -1.617466      0.060544
  H      -3.918552     -1.537973     -0.986574
  H      -2.947359     -2.230009      0.309207
  H      -4.146679     -0.984304      0.667297
  H      -2.056499      1.842605     -0.756926
  H      -4.365988      2.434386     -1.081038
  H      -4.909601      0.722125     -0.671822
27
Coordinates from ORCA-job ./output/_e_tagetone/_e_tagetone E -82.652631170706
  C       2.642934      0.434783      1.439425
  C       2.646431      0.330087     -0.077158
  C       3.921022     -0.324869     -0.577901
  C       1.424249     -0.435549     -0.559931
  C       0.113105      0.284149     -0.310803
  O       0.083001      1.496592     -0.288117
  C      -1.072150     -0.583858     -0.147967
  C      -2.366997     -0.251558     -0.279257
  C      -3.406676     -1.311759     -0.077663
  C      -2.822555      1.089906     -0.648484
  C      -4.098705      1.425298     -0.804563
  H       2.694342     -0.556099      1.896726
  H       3.499783      1.006835      1.795510
  H       1.742478      0.930608      1.800708
  H       2.581312      1.338085     -0.490107
  H       4.799617      0.224855     -0.239767
  H       3.949334     -0.361176     -1.667589
  H       4.010731     -1.348313     -0.207248
  H       1.403154     -1.435690     -0.123494
  H       1.473226     -0.579268     -1.644762
  H      -0.848560     -1.618287      0.076142
  H      -3.964693     -1.493290     -0.996217
  H      -2.952573     -2.248299      0.234965
  H      -4.120853     -1.005542      0.685778
  H      -2.053273      1.831507     -0.798618
  H      -4.366215      2.432851     -1.091859
  H      -4.911471      0.728000     -0.652298
27
Coordinates from ORCA-job ./output/_e_tagetone/_e_tagetone E -82.652734605167
  C       2.671773      0.459225      1.437793
  C       2.646398      0.331174     -0.076871
  C       3.913763     -0.327009     -0.591987
  C       1.418135     -0.446177     -0.522863
  C       0.108233      0.274654     -0.270723
  O       0.081807      1.486374     -0.223272
  C      -1.081284     -0.592534     -0.137875
  C      -2.373361     -0.258735     -0.290501
  C      -3.417822     -1.318456     -0.114567
  C      -2.820813      1.087764     -0.651722
  C      -4.095255      1.431430     -0.803439
  H       2.736974     -0.524453      1.908514
  H       3.532423      1.040867      1.768038
  H       1.775949      0.956760      1.807836
  H       2.569614      1.332450     -0.503592
  H       4.796235      0.231597     -0.279647
  H       3.921086     -0.379843     -1.681316
  H       4.014644     -1.344099     -0.207122
  H       1.405289     -1.436040     -0.063100
  H       1.450563     -0.617990     -1.604371
  H      -0.862146     -1.629805      0.077769
  H      -3.988622     -1.463481     -1.031344
  H      -2.967248     -2.267961      0.161704
  H      -4.120293     -1.032773      0.667836
  H      -2.046872      1.826019     -0.793775
  H      -4.357278      2.443004     -1.081592
  H      -4.911893      0.738037     -0.654362
27
Coordinates from ORCA-job ./output/_e_tagetone/_e_tagetone E -82.653000371076
  C       2.721394      0.541669      1.422924
  C       2.644846      0.330104     -0.080633
  C       3.899387     -0.349643     -0.600463
  C       1.409515     -0.477320     -0.442956
  C       0.098895      0.249802     -0.219622
  O       0.073775      1.459697     -0.142740
  C      -1.096605     -0.616756     -0.150911
  C      -2.383994     -0.275760     -0.324059
  C      -3.435471     -1.336225     -0.213680
  C      -2.818521      1.089083     -0.629947
  C      -4.090269      1.451891     -0.754661
  H       2.810642     -0.414598      1.943167
  H       3.589115      1.144999      1.689265
  H       1.835639      1.054164      1.795426
  H       2.548490      1.306227     -0.558429
  H       4.787625      0.230147     -0.349466
  H       3.871669     -0.463260     -1.684729
  H       4.019799     -1.342854     -0.162759
  H       1.405847     -1.430005      0.090849
  H       1.422376     -0.737147     -1.507313
  H      -0.882524     -1.662777      0.026333
  H      -4.037662     -1.386173     -1.119815
  H      -2.990554     -2.312341     -0.040802
  H      -4.108675     -1.116258      0.614789
  H      -2.036265      1.823460     -0.742101
  H      -4.344603      2.477632     -0.984214
  H      -4.913871      0.762240     -0.628008
27
Coordinates from ORCA-job ./output/_e_tagetone/_e_tagetone E -82.653256569054
  C       2.758479      0.641565      1.393586
  C       2.644033      0.324072     -0.088548
  C       3.887180     -0.392185     -0.588108
  C       1.404191     -0.506781     -0.368309
  C       0.091984      0.228694     -0.201527
  O       0.061927      1.437159     -0.114327
  C      -1.104932     -0.638927     -0.194963
  C      -2.390557     -0.288521     -0.359407
  C      -3.444058     -1.350986     -0.323063
  C      -2.820898      1.095434     -0.573987
  C      -4.091801      1.468508     -0.669757
  H       2.862471     -0.275777      1.976992
  H       3.633388      1.260163      1.592455
  H       1.883079      1.180166      1.751677
  H       2.538024      1.264822     -0.631111
  H       4.780807      0.202410     -0.399194
  H       3.835458     -0.582712     -1.660478
  H       4.017770     -1.351893     -0.083956
  H       1.398044     -1.406779      0.251666
  H       1.411200     -0.869605     -1.402053
  H      -0.890217     -1.693702     -0.076442
  H      -4.059431     -1.318042     -1.220691
  H      -3.002280     -2.340370     -0.243182
  H      -4.104351     -1.201663      0.531132
  H      -2.036143      1.832742     -0.636361
  H      -4.345920      2.508074     -0.826024
  H      -4.917451      0.774133     -0.590572
27
Coordinates from ORCA-job ./output/_e_tagetone/_e_tagetone E -82.653439027891
  C       2.747310      0.725483      1.359726
  C       2.647392      0.313287     -0.099581
  C       3.892055     -0.442267     -0.534957
  C       1.407867     -0.526253     -0.351105
  C       0.097028      0.220745     -0.271831
  O       0.063162      1.430724     -0.224400
  C      -1.099261     -0.648249     -0.284274
  C      -2.389123     -0.292505     -0.390677
  C      -3.440464     -1.356892     -0.393259
  C      -2.825851      1.101902     -0.501649
  C      -4.099263      1.475220     -0.547695
  H       2.837922     -0.152440      2.002828
  H       3.626462      1.347472      1.526398
  H       1.873607      1.292764      1.673120
  H       2.558689      1.218874     -0.702540
  H       4.788222      0.155761     -0.371377
  H       3.854193     -0.701677     -1.593154
  H       4.006991     -1.368459      0.031482
  H       1.371709     -1.375168      0.337786
  H       1.442280     -0.970222     -1.351383
  H      -0.878837     -1.707460     -0.224914
  H      -4.069459     -1.272895     -1.278061
  H      -2.997661     -2.348849     -0.378968
  H      -4.087864     -1.258568      0.477667
  H      -2.043971      1.844032     -0.532249
  H      -4.361290      2.521638     -0.626284
  H      -4.921846      0.774001     -0.505199
27
Coordinates from ORCA-job ./output/_e_tagetone/_e_tagetone E -82.653471411743
  C       2.786260      0.795734      1.321954
  C       2.648724      0.306192     -0.109770
  C       3.878373     -0.480547     -0.533471
  C       1.399967     -0.536340     -0.287469
  C       0.090239      0.213088     -0.226787
  O       0.052299      1.420925     -0.149920
  C      -1.103797     -0.656730     -0.303503
  C      -2.393116     -0.296478     -0.396049
  C      -3.441965     -1.360619     -0.478562
  C      -2.833237      1.100740     -0.426444
  C      -4.105904      1.472485     -0.500973
  H       2.889775     -0.046456      2.009372
  H       3.672073      1.420644      1.432657
  H       1.922681      1.383445      1.624926
  H       2.551865      1.179662     -0.757235
  H       4.782254      0.117527     -0.420869
  H       3.814699     -0.794245     -1.575586
  H       3.999459     -1.377240      0.077341
  H       1.367417     -1.342123      0.452192
  H       1.411565     -1.043493     -1.258016
  H      -0.881651     -1.717351     -0.301439
  H      -4.017248     -1.261066     -1.398044
  H      -2.998996     -2.352384     -0.458532
  H      -4.139792     -1.280111      0.353869
  H      -2.056386      1.847393     -0.380296
  H      -4.371043      2.520812     -0.521832
  H      -4.924519      0.766537     -0.542068
27
Coordinates from ORCA-job ./output/_e_tagetone/_e_tagetone E -82.653543703408
  C       2.713612      0.793690      1.319796
  C       2.652783      0.301110     -0.116134
  C       3.903538     -0.485899     -0.472085
  C       1.414937     -0.542453     -0.361793
  C       0.107440      0.212670     -0.361461
  O       0.077031      1.423329     -0.364663
  C      -1.091385     -0.653952     -0.383311
  C      -2.383520     -0.292316     -0.406833
  C      -3.435890     -1.355572     -0.437150
  C      -2.824235      1.104853     -0.407137
  C      -4.099182      1.476303     -0.428513
  H       2.778959     -0.046736      2.013921
  H       3.592968      1.417952      1.476082
  H       1.835661      1.382802      1.575300
  H       2.590423      1.173144     -0.770103
  H       4.799990      0.112832     -0.313335
  H       3.894529     -0.802530     -1.515149
  H       3.991631     -1.380704      0.147007
  H       1.344699     -1.349338      0.373890
  H       1.478253     -1.042397     -1.333254
  H      -0.871358     -1.714905     -0.383589
  H      -4.042150     -1.267308     -1.337924
  H      -2.993690     -2.347680     -0.419230
  H      -4.104911     -1.263131      0.417273
  H      -2.046256      1.851536     -0.390420
  H      -4.365445      2.524567     -0.429265
  H      -4.918431      0.770133     -0.446470
27
Coordinates from ORCA-job ./output/_e_tagetone/_e_tagetone E -82.653556712603
  C       2.709662      0.797534      1.317025
  C       2.652911      0.299848     -0.117511
  C       3.904902     -0.487392     -0.467965
  C       1.415684     -0.545179     -0.360519
  C       0.108072      0.211249     -0.364550
  O       0.079437      1.422098     -0.371443
  C      -1.091220     -0.654364     -0.388877
  C      -2.383342     -0.292478     -0.410361
  C      -3.435806     -1.355803     -0.440274
  C      -2.823426      1.104915     -0.405865
  C      -4.098087      1.477698     -0.421990
  H       2.774590     -0.040556      2.014100
  H       3.587289      1.424258      1.473513
  H       1.829858      1.386055      1.567797
  H       2.590442      1.169279     -0.774869
  H       4.800308      0.113171     -0.309949
  H       3.897977     -0.807744     -1.509982
  H       3.992973     -1.379760      0.154770
  H       1.346181     -1.349579      0.377886
  H       1.479178     -1.048871     -1.330376
  H      -0.871827     -1.715423     -0.391245
  H      -4.052325     -1.258921     -1.333146
  H      -2.993066     -2.347876     -0.436288
  H      -4.095105     -1.271636      0.422642
  H      -2.044503      1.850684     -0.389169
  H      -4.362713      2.526352     -0.418020
  H      -4.918045      0.772439     -0.439885
27
Coordinates from ORCA-job ./output/_e_tagetone/_e_tagetone E -82.653566680992
  C       2.697562      0.813514      1.306798
  C       2.654142      0.296116     -0.121546
  C       3.908421     -0.496648     -0.449600
  C       1.417531     -0.550890     -0.361259
  C       0.110965      0.209131     -0.388844
  O       0.086772      1.420028     -0.413582
  C      -1.089464     -0.654459     -0.416811
  C      -2.381783     -0.292228     -0.419982
  C      -3.434385     -1.355716     -0.450302
  C      -2.821811      1.104769     -0.390058
  C      -4.096319      1.478608     -0.391373
  H       2.756449     -0.015161      2.015664
  H       3.572769      1.443755      1.463360
  H       1.814637      1.404533      1.540497
  H       2.597282      1.156147     -0.791594
  H       4.802566      0.106081     -0.292104
  H       3.910322     -0.831137     -1.487293
  H       3.990788     -1.380316      0.186319
  H       1.341779     -1.344108      0.388449
  H       1.486954     -1.069601     -1.323119
  H      -0.871188     -1.715586     -0.431820
  H      -4.066595     -1.244662     -1.330473
  H      -2.990855     -2.347318     -0.469997
  H      -4.078547     -1.286005      0.425442
  H      -2.042092      1.849634     -0.367400
  H      -4.359167      2.527416     -0.367275
  H      -4.916735      0.774101     -0.416647
27
Coordinates from ORCA-job ./output/_e_tagetone/_e_tagetone E -82.653567624597
  C       2.694172      0.813598      1.306399
  C       2.653924      0.295930     -0.121974
  C       3.909332     -0.495954     -0.447655
  C       1.418089     -0.551815     -0.363307
  C       0.111293      0.207879     -0.393245
  O       0.087258      1.418717     -0.420815
  C      -1.089151     -0.655543     -0.420168
  C      -2.381277     -0.292537     -0.420013
  C      -3.434602     -1.355479     -0.448371
  C      -2.820416      1.104665     -0.388247
  C      -4.094629      1.479523     -0.389554
  H       2.752441     -0.014964      2.015446
  H       3.568307      1.444870      1.464812
  H       1.810074      1.403748      1.538181
  H       2.597577      1.155798     -0.792254
  H       4.802725      0.107458     -0.288349
  H       3.913518     -0.830216     -1.485434
  H       3.991255     -1.379699      0.188226
  H       1.341994     -1.345360      0.385966
  H       1.488621     -1.070055     -1.325369
  H      -0.871451     -1.716750     -0.436129
  H      -4.068072     -1.244931     -1.327711
  H      -2.991532     -2.347302     -0.468177
  H      -4.077361     -1.284696      0.428326
  H      -2.040222      1.849053     -0.364661
  H      -4.356439      2.528560     -0.364448
  H      -4.915428      0.775501     -0.416026
27
Coordinates from ORCA-job ./output/_e_tagetone/_e_tagetone E -82.653568002586
  C       2.691977      0.815606      1.305268
  C       2.653864      0.295635     -0.122304
  C       3.909603     -0.496988     -0.444795
  C       1.418260     -0.552246     -0.364331
  C       0.111672      0.207457     -0.398149
  O       0.087673      1.418215     -0.428785
  C      -1.088707     -0.656041     -0.424645
  C      -2.380759     -0.292742     -0.420917
  C      -3.434398     -1.355407     -0.448637
  C      -2.819608      1.104459     -0.385596
  C      -4.093719      1.479639     -0.385317
  H       2.749146     -0.011820      2.015727
  H       3.565833      1.447132      1.464185
  H       1.807516      1.406085      1.534803
  H       2.598798      1.154455     -0.794040
  H       4.802898      0.106389     -0.284764
  H       3.915582     -0.832667     -1.482104
  H       3.990390     -1.379936      0.192330
  H       1.340737     -1.344824      0.385804
  H       1.490056     -1.071722     -1.325647
  H      -0.871176     -1.717250     -0.442476
  H      -4.069364     -1.243905     -1.326787
  H      -2.991580     -2.347298     -0.470643
  H      -4.075607     -1.285373      0.429232
  H      -2.039261      1.848663     -0.361165
  H      -4.355198      2.528693     -0.357905
  H      -4.914630      0.775789     -0.412893
27
Coordinates from ORCA-job ./output/_e_tagetone/_e_tagetone E -82.653568081168
  C       2.691737      0.815380      1.305463
  C       2.653814      0.295723     -0.122202
  C       3.909603     -0.496807     -0.444736
  C       1.418303     -0.552114     -0.364709
  C       0.111669      0.207371     -0.398445
  O       0.087374      1.418105     -0.429363
  C      -1.088651     -0.656254     -0.424595
  C      -2.380663     -0.292830     -0.420878
  C      -3.434436     -1.355351     -0.448101
  C      -2.819404      1.104424     -0.385840
  C      -4.093497      1.479654     -0.385604
  H       2.748798     -0.012179      2.015773
  H       3.565581      1.446840      1.464663
  H       1.807270      1.405814      1.535051
  H       2.598897      1.154700     -0.793746
  H       4.802898      0.106478     -0.284367
  H       3.915803     -0.832184     -1.482135
  H       3.990336     -1.379970      0.192098
  H       1.340760     -1.345180      0.384899
  H       1.490187     -1.070990     -1.326351
  H      -0.871137     -1.717475     -0.442153
  H      -4.069671     -1.243911     -1.326064
  H      -2.991794     -2.347316     -0.470238
  H      -4.075345     -1.285073      0.429965
  H      -2.039058      1.848621     -0.361542
  H      -4.354956      2.528716     -0.358403
  H      -4.914421      0.775808     -0.412992
