27
Coordinates from ORCA-job ./output/_e_tagetone/_e_tagetone E -82.653568081168
  C           2.69173656197074      0.81538005874879      1.30546288311539
  C           2.65381444587615      0.29572328748015     -0.12220175945860
  C           3.90960346188281     -0.49680679054448     -0.44473552097189
  C           1.41830323817873     -0.55211360166008     -0.36470909908608
  C           0.11166898453526      0.20737099533494     -0.39844497533066
  O           0.08737411274016      1.41810544265758     -0.42936325031726
  C          -1.08865086525545     -0.65625393774722     -0.42459522686824
  C          -2.38066307318321     -0.29282986505496     -0.42087802444445
  C          -3.43443607582725     -1.35535143055538     -0.44810082615531
  C          -2.81940382708019      1.10442373261297     -0.38584041632918
  C          -4.09349728573691      1.47965352178580     -0.38560350305133
  H           2.74879759207400     -0.01217947953365      2.01577285739852
  H           3.56558094160972      1.44683958254213      1.46466262868480
  H           1.80727019733052      1.40581412804523      1.53505125721843
  H           2.59889725087789      1.15469979825314     -0.79374615261481
  H           4.80289834281426      0.10647820849649     -0.28436733797622
  H           3.91580293172681     -0.83218445882390     -1.48213513009838
  H           3.99033561234514     -1.37996976446036      0.19209839025868
  H           1.34076023637920     -1.34518003421557      0.38489933535487
  H           1.49018736390436     -1.07099030618158     -1.32635125421906
  H          -0.87113680820492     -1.71747506972361     -0.44215309741974
  H          -4.06967131944293     -1.24391114996238     -1.32606418033197
  H          -2.99179421594661     -2.34731608191980     -0.47023795510940
  H          -4.07534482223462     -1.28507324079707      0.42996521133374
  H          -2.03905783793205      1.84862066712266     -0.36154247937690
  H          -4.35495609148446      2.52871636155326     -0.35840256585945
  H          -4.91442105191715      0.77580842654691     -0.41299180834551
