27
Coordinates from ORCA-job ./output/fenchone/fenchone E -82.694628579067
  C       1.926100      1.205143      0.794049
  C       1.210328      0.142306     -0.068216
  C       0.096922      0.720815     -1.013791
  C      -0.850943      1.674928     -0.242883
  C      -1.605993      0.721675      0.710981
  C      -1.070374     -0.662633      0.296402
  C      -0.844685     -0.469511     -1.189493
  C       0.353218     -0.760698      0.771177
  O       0.738954     -1.410159      1.732077
  C      -1.965642     -1.848597      0.660253
  C       2.264953     -0.662389     -0.857139
  H       2.798021      0.759762      1.319646
  H       1.261370      1.615518      1.582780
  H       2.289914      2.035726      0.152459
  H       0.476236      1.147890     -1.967145
  H      -1.566137      2.146039     -0.953734
  H      -0.328731      2.493279      0.291532
  H      -1.381484      0.947759      1.777002
  H      -2.703129      0.795226      0.541099
  H      -0.378817     -1.350813     -1.681508
  H      -1.778084     -0.211716     -1.744082
  H      -1.512379     -2.796792      0.300220
  H      -2.090807     -1.904855      1.762296
  H      -2.966139     -1.731588      0.192306
  H       1.815045     -1.483038     -1.450608
  H       3.000541     -1.122653     -0.162837
  H       2.811741      0.009378     -1.552843
27
Coordinates from ORCA-job ./output/fenchone/fenchone E -82.703906893130
  C       1.911512      1.200550      0.778495
  C       1.192903      0.157853     -0.073844
  C       0.105260      0.736812     -1.016884
  C      -0.831243      1.674871     -0.241583
  C      -1.595669      0.709424      0.699960
  C      -1.081323     -0.680230      0.286813
  C      -0.823905     -0.465725     -1.203572
  C       0.338012     -0.750087      0.788528
  O       0.732550     -1.421591      1.711582
  C      -1.958214     -1.850818      0.679716
  C       2.229288     -0.648927     -0.852902
  H       2.753218      0.747427      1.299898
  H       1.261477      1.625093      1.541340
  H       2.288791      2.005159      0.147238
  H       0.498490      1.172163     -1.936037
  H      -1.520015      2.151964     -0.939183
  H      -0.314194      2.470630      0.290191
  H      -1.395308      0.914888      1.751877
  H      -2.670267      0.774133      0.535231
  H      -0.354255     -1.324009     -1.685199
  H      -1.730757     -0.220251     -1.758049
  H      -1.515211     -2.787901      0.345858
  H      -2.076451     -1.894507      1.761826
  H      -2.943187     -1.748827      0.225085
  H       1.780235     -1.442753     -1.447640
  H       2.934761     -1.114199     -0.166074
  H       2.783501      0.008861     -1.522670
27
Coordinates from ORCA-job ./output/fenchone/fenchone E -82.704726544277
  C       1.898612      1.197389      0.781877
  C       1.186979      0.164088     -0.081492
  C       0.103598      0.735113     -1.023885
  C      -0.828062      1.670917     -0.250584
  C      -1.578469      0.706321      0.697552
  C      -1.085241     -0.693357      0.276999
  C      -0.824153     -0.470066     -1.216120
  C       0.340110     -0.768059      0.777139
  O       0.735816     -1.416360      1.709344
  C      -1.959153     -1.847217      0.691564
  C       2.227723     -0.636464     -0.854831
  H       2.715332      0.731012      1.326647
  H       1.238558      1.644100      1.519942
  H       2.309270      1.989814      0.158491
  H       0.507468      1.173185     -1.933623
  H      -1.520387      2.145746     -0.942962
  H      -0.308457      2.467022      0.273057
  H      -1.374822      0.906459      1.747780
  H      -2.654556      0.768895      0.552082
  H      -0.357363     -1.324519     -1.700760
  H      -1.732040     -0.222451     -1.763671
  H      -1.533479     -2.790710      0.359255
  H      -2.056148     -1.887957      1.773554
  H      -2.951492     -1.740778      0.258106
  H       1.785175     -1.404578     -1.482958
  H       2.907251     -1.128715     -0.163533
  H       2.807927      0.031175     -1.488969
27
Coordinates from ORCA-job ./output/fenchone/fenchone E -82.704969014130
  C       1.910952      1.199416      0.779019
  C       1.182782      0.179403     -0.082688
  C       0.098498      0.745638     -1.021918
  C      -0.844253      1.672306     -0.254144
  C      -1.581431      0.703251      0.692703
  C      -1.086792     -0.698939      0.268567
  C      -0.816570     -0.466390     -1.224722
  C       0.338185     -0.754046      0.788485
  O       0.747012     -1.426375      1.694375
  C      -1.950366     -1.848204      0.696716
  C       2.214393     -0.638333     -0.851169
  H       2.695322      0.708331      1.350948
  H       1.253077      1.691228      1.490895
  H       2.370607      1.964506      0.153211
  H       0.513069      1.189868     -1.924802
  H      -1.541721      2.141080     -0.947121
  H      -0.331923      2.474895      0.267844
  H      -1.386374      0.900120      1.746372
  H      -2.661199      0.751344      0.554456
  H      -0.341784     -1.316041     -1.711213
  H      -1.726583     -0.221309     -1.772342
  H      -1.528681     -2.796333      0.368094
  H      -2.032245     -1.886981      1.780971
  H      -2.951328     -1.749446      0.278152
  H       1.763089     -1.375491     -1.510593
  H       2.861578     -1.168735     -0.155031
  H       2.832688      0.025240     -1.455067
27
Coordinates from ORCA-job ./output/fenchone/fenchone E -82.705098823813
  C       1.904060      1.198536      0.781266
  C       1.183532      0.176971     -0.085609
  C       0.097354      0.740725     -1.025905
  C      -0.842731      1.670316     -0.257033
  C      -1.575286      0.704181      0.695307
  C      -1.085545     -0.699861      0.268431
  C      -0.821539     -0.468590     -1.224101
  C       0.341618     -0.763897      0.779397
  O       0.747647     -1.420295      1.700085
  C      -1.954656     -1.847400      0.697057
  C       2.223900     -0.633325     -0.853336
  H       2.678215      0.705650      1.366422
  H       1.238312      1.697114      1.482135
  H       2.376690      1.959009      0.158677
  H       0.510980      1.181505     -1.932328
  H      -1.543621      2.137369     -0.948408
  H      -0.327442      2.474997      0.260950
  H      -1.372321      0.901082      1.748109
  H      -2.656620      0.754677      0.565320
  H      -0.352218     -1.320554     -1.712991
  H      -1.733928     -0.220100     -1.767204
  H      -1.541118     -2.797560      0.361965
  H      -2.028394     -1.889822      1.782574
  H      -2.958906     -1.742729      0.286830
  H       1.779239     -1.364715     -1.524313
  H       2.866063     -1.169574     -0.156427
  H       2.846714      0.036293     -1.446872
27
Coordinates from ORCA-job ./output/fenchone/fenchone E -82.705114368456
  C       1.904993      1.198324      0.781467
  C       1.183600      0.177725     -0.085830
  C       0.096504      0.740983     -1.026232
  C      -0.844576      1.670444     -0.257397
  C      -1.575997      0.704413      0.695963
  C      -1.084270     -0.699004      0.268995
  C      -0.821383     -0.468802     -1.222657
  C       0.342044     -0.762337      0.779271
  O       0.748247     -1.417701      1.701282
  C      -1.954166     -1.847711      0.696076
  C       2.224355     -0.632669     -0.853647
  H       2.671644      0.701663      1.373388
  H       1.238361      1.704023      1.476267
  H       2.387258      1.952959      0.159287
  H       0.508961      1.180280     -1.933867
  H      -1.546240      2.135641     -0.949180
  H      -0.330344      2.476585      0.259340
  H      -1.371396      0.901382      1.748429
  H      -2.657428      0.754009      0.567508
  H      -0.352097     -1.321110     -1.711326
  H      -1.733928     -0.220840     -1.765691
  H      -1.542320     -2.797422      0.357666
  H      -2.024708     -1.892409      1.781781
  H      -2.959470     -1.742268      0.288967
  H       1.779115     -1.360101     -1.528782
  H       2.863238     -1.172939     -0.156929
  H       2.850001      0.036884     -1.444146
27
Coordinates from ORCA-job ./output/fenchone/fenchone E -82.705119715822
  C       1.905305      1.198013      0.781850
  C       1.183237      0.178877     -0.086317
  C       0.095627      0.741360     -1.026940
  C      -0.845982      1.670429     -0.258147
  C      -1.576157      0.704373      0.696301
  C      -1.083412     -0.698799      0.269195
  C      -0.821520     -0.469127     -1.222037
  C       0.342191     -0.760798      0.779253
  O       0.749199     -1.416374      1.700926
  C      -1.953331     -1.847889      0.696010
  C       2.224488     -0.631564     -0.853668
  H       2.662973      0.696836      1.381517
  H       1.237548      1.711855      1.469461
  H       2.398771      1.945980      0.160540
  H       0.507256      1.179711     -1.935306
  H      -1.548394      2.133858     -0.950348
  H      -0.332690      2.477964      0.257268
  H      -1.369603      0.901203      1.748382
  H      -2.657717      0.753260      0.569809
  H      -0.352342     -1.321503     -1.710613
  H      -1.734193     -0.221629     -1.765055
  H      -1.543761     -2.797203      0.353779
  H      -2.019422     -1.895002      1.781907
  H      -2.960038     -1.741242      0.292980
  H       1.779057     -1.354702     -1.533255
  H       2.859647     -1.175952     -0.156847
  H       2.853262      0.038066     -1.440644
27
Coordinates from ORCA-job ./output/fenchone/fenchone E -82.705120265008
  C       1.905478      1.197817      0.782221
  C       1.183153      0.179175     -0.086388
  C       0.095536      0.741611     -1.027031
  C      -0.846365      1.670474     -0.258468
  C      -1.576215      0.704393      0.696298
  C      -1.083373     -0.698805      0.269282
  C      -0.821389     -0.469241     -1.222052
  C       0.342153     -0.760456      0.779319
  O       0.749300     -1.415959      1.700918
  C      -1.953066     -1.847932      0.696196
  C       2.224247     -0.631371     -0.853731
  H       2.661321      0.695437      1.383170
  H       1.237606      1.713016      1.468642
  H       2.401146      1.944604      0.161301
  H       0.506907      1.179996     -1.935447
  H      -1.548981      2.133215     -0.950924
  H      -0.333610      2.478506      0.256588
  H      -1.368977      0.901378      1.748205
  H      -2.657776      0.753315      0.570187
  H      -0.351908     -1.321557     -1.710462
  H      -1.733914     -0.222075     -1.765430
  H      -1.544046     -2.796987      0.352629
  H      -2.017967     -1.895904      1.782094
  H      -2.960071     -1.740678      0.294125
  H       1.778542     -1.354131     -1.533552
  H       2.859213     -1.176039     -0.156995
  H       2.853053      0.038199     -1.440695
