11
Coordinates from ORCA-job ./output/allyl_isothiocyanate/allyl_isothiocyanate E -45.922530280812
  C          -1.83816075464197      0.49819005974035      0.03824558611590
  C          -0.69697703086105      0.05300654510431      0.53186824564591
  C           0.19125694624810     -0.91130354139394     -0.18710391622835
  N           1.51244609499464     -0.39761575880910     -0.35273246915412
  C           2.31847522736773      0.45578159103769     -0.24735499656481
  S           3.46439350961044      1.54427580103635     -0.14480855579980
  H          -2.46269160474946      1.18201511491021      0.59658092754840
  H          -2.18918580152623      0.19371992624324     -0.94025664847676
  H          -0.35493157545163      0.37736381181275      1.50842293023370
  H           0.26841843815722     -1.84705232340488      0.36699563858577
  H          -0.21304244914781     -1.14838122627698     -1.16985774190583
