42
Coordinates from ORCA-job ./output/_2e_6e_farnesol/_2e_6e_farnesol E -117.164993748307
  C          -4.83451853660124      0.42467845874823      2.35844685593000
  C          -5.08440293766632      0.23764175913699      0.89442669814441
  C          -4.19699437192200      0.49284813841889     -0.06235001861263
  C          -2.79593090998060      0.98968325317483      0.09572927334126
  C          -1.77050770024451     -0.12520874672833     -0.10460355920068
  C          -0.34621032291195      0.34828200632923     -0.05185243596660
  C           0.43965697021816      0.24542939183058     -1.11952382756719
  C           1.87367434100834      0.65160394594358     -1.23706221625145
  C           2.81652381823170     -0.55036765906009     -1.15211701470759
  C           4.25037414172885     -0.17064689280571     -1.38671945838731
  C           5.10183933369805      0.06753069077753     -0.39200234516224
  C           4.77108328346913     -0.04929614184100      1.06478938903962
  O           4.75519844953970     -1.38868924178723      1.53349724136244
  C           4.67133949262205     -0.05313231566569     -2.81713242376526
  C           0.09395710155055      0.92435377361120      1.25983913687870
  C          -6.45088140157672     -0.27738845188185      0.56097600323430
  H          -5.00428482532448     -0.51243321654021      2.89122592788305
  H          -3.82577829105303      0.75716178774773      2.58331040902290
  H          -5.53296188652809      1.15264026559053      2.77499420118441
  H          -4.50033992036101      0.29418148391673     -1.08657045333457
  H          -2.65609884923392      1.45464004567534      1.06971817097882
  H          -2.60787126746955      1.77052340245675     -0.64524044515813
  H          -1.93108791296302     -0.88297229280787      0.66767522680001
  H          -1.95696393119353     -0.61436509942429     -1.06171410633121
  H           0.01640049605478     -0.21347210384890     -2.00878668459623
  H           2.14723406812288      1.37530711496959     -0.47087178783924
  H           2.01787241835052      1.15964687621841     -2.19303074378718
  H           2.51588179865610     -1.28833211927571     -1.89968088896706
  H           2.69845114938813     -1.03224671737774     -0.18344720737824
  H           6.12077379271212      0.34881035766920     -0.63871890256222
  H           3.77976852470291      0.34744964081113      1.27722180365918
  H           5.48255357399350      0.53981862547112      1.64944476254839
  H           5.47453417110015     -1.86735658324547      1.12063763947609
  H           4.02540975527998      0.63834676098233     -3.35904567631508
  H           4.59007667352423     -1.01928680510380     -3.31719773494788
  H           5.69717313838274      0.29655865909600     -2.90958610673006
  H           1.17266163356186      1.02337324286553      1.33577460632362
  H          -0.23869600355986      0.28706513793971      2.08027513226956
  H          -0.34307155775151      1.91004086565929      1.42479491194634
  H          -6.62769643318143     -1.24419579618812      1.03536025038226
  H          -6.58716974929608     -0.39391345614879     -0.51195661210020
  H          -7.22097131707758      0.40175295469035      0.93107300926287
