39
Coordinates from ORCA-job ./output/delta_cadinene/delta_cadinene E -99.941585185685
  C          -1.20598099300821      3.24646782953065     -1.20255525452104
  C          -1.09495704585020      2.02918192656570     -0.34183914297678
  C           0.05142610646222      1.37623362906113     -0.18616805492033
  C           0.21683024948118      0.14848416947400      0.67584188337247
  C           1.25007306095130     -0.89195658272201      0.22618124156752
  C           0.64763628490975     -1.78797863797442     -0.83829514973323
  C          -0.50677386135819     -2.56797296341638     -0.24728544986294
  C          -1.47375314099486     -1.69485762692185      0.50273676461470
  C          -1.14701659095594     -0.46361562227072      0.89116040599702
  C          -2.10880627109564      0.55219603001276      1.42482148776226
  C          -2.35968287320481      1.59101412487934      0.33837937328626
  C          -2.81446075199201     -2.32859817559415      0.71511196944292
  C           2.66982913442327     -0.40545297182809     -0.11631149613267
  C           3.21141832915177      0.56848225355356      0.91858098305063
  C           2.89011400003835      0.11554097692043     -1.53146033464036
  H          -1.96587532046649      3.10553603199721     -1.97344361183687
  H          -1.50961860517919      4.11392049709717     -0.61418583124884
  H          -0.26354181430409      3.47975080223088     -1.69372480314883
  H           0.93049739433138      1.77454762654355     -0.67098236866110
  H           0.55241258589130      0.50341369259883      1.65769521088336
  H           1.38663304956748     -1.52457365999688      1.11120669320846
  H           1.39949454317935     -2.47300166116817     -1.23545680156196
  H           0.28851549147933     -1.18309879006973     -1.67444772416804
  H          -0.12928456990641     -3.35188515548882      0.41825712799950
  H          -1.05365769460112     -3.09063548182683     -1.03609163512695
  H          -1.66853676792405      1.04827001885354      2.29348126490486
  H          -3.05009557363723      0.11815664241188      1.74951682248676
  H          -3.04323695590140      1.18545575150874     -0.41402541617847
  H          -2.86134430011407      2.46553223078002      0.76016145968119
  H          -2.68790498552308     -3.34579689450243      1.09008205756546
  H          -3.35689114597785     -2.40946312798514     -0.22904994694751
  H          -3.44370813419886     -1.79477325903672      1.41993621965439
  H           3.28233548838153     -1.31070058096469     -0.04400072438893
  H           2.69654681713528      1.52852795720359      0.88276229679047
  H           3.10395366843292      0.17237636015782      1.92901525626703
  H           4.27119154022835      0.75956845891613      0.74894126842354
  H           3.95828014749123      0.24684782017156     -1.70753282850692
  H           2.41649852895801      1.07661735368574     -1.71545981142750
  H           2.52144097569971     -0.58175999238719     -2.28155640096951
