18
Coordinates from ORCA-job ./output/methyl_benzoate/methyl_benzoate E -82.488592462837
  C       3.554822     -0.081689      0.084439
  O       2.177222      0.272874      0.089455
  C       1.154512     -0.667464     -0.077322
  O       1.438569     -1.886491     -0.240691
  C      -0.258896     -0.229874     -0.061720
  C      -1.301730     -1.161079     -0.227863
  C      -2.635206     -0.740025     -0.211980
  C      -2.941864      0.610437     -0.030735
  C      -1.915525      1.543087      0.135071
  C      -0.580177      1.127837      0.120072
  H       3.825635     -0.541031     -0.889800
  H       4.166694      0.831417      0.233874
  H       3.766623     -0.795755      0.908287
  H      -1.088157     -2.213101     -0.369885
  H      -3.431456     -1.461891     -0.340374
  H      -3.974606      0.934153     -0.018771
  H      -2.154503      2.589402      0.275452
  H       0.198044      1.869193      0.250634
18
Coordinates from ORCA-job ./output/methyl_benzoate/methyl_benzoate E -82.505429219094
  C       3.444753     -0.099858      0.078572
  O       2.090081      0.292177      0.089050
  C       1.163943     -0.663191     -0.076955
  O       1.478917     -1.825598     -0.231307
  C      -0.234324     -0.215885     -0.059398
  C      -1.251590     -1.147493     -0.224532
  C      -2.573334     -0.738258     -0.209487
  C      -2.887247      0.601640     -0.029842
  C      -1.875218      1.534398      0.135128
  C      -0.551479      1.127459      0.120537
  H       3.700774     -0.556324     -0.876586
  H       4.037870      0.797095      0.225152
  H       3.642234     -0.805455      0.884414
  H      -1.016049     -2.191816     -0.364845
  H      -3.361517     -1.465959     -0.338143
  H      -3.921084      0.918127     -0.018542
  H      -2.117551      2.578218      0.275094
  H       0.230821      1.860723      0.249834
18
Coordinates from ORCA-job ./output/methyl_benzoate/methyl_benzoate E -82.506721355115
  C       3.417889     -0.101803      0.077935
  O       2.059529      0.293692      0.088087
  C       1.171967     -0.678919     -0.079610
  O       1.492087     -1.826939     -0.232069
  C      -0.229252     -0.210109     -0.059119
  C      -1.241044     -1.141414     -0.223654
  C      -2.560498     -0.735607     -0.208379
  C      -2.874917      0.601156     -0.029021
  C      -1.865601      1.533658      0.135228
  C      -0.544301      1.129261      0.120325
  H       3.674975     -0.559950     -0.872905
  H       3.997076      0.802384      0.225248
  H       3.615828     -0.807703      0.879570
  H      -0.991259     -2.182686     -0.363189
  H      -3.347700     -1.465083     -0.336774
  H      -3.909310      0.916283     -0.017294
  H      -2.108465      2.577525      0.275265
  H       0.242997      1.856253      0.248498
18
Coordinates from ORCA-job ./output/methyl_benzoate/methyl_benzoate E -82.506885133820
  C       3.423928     -0.101139      0.078511
  O       2.060135      0.291502      0.087970
  C       1.172699     -0.687062     -0.081106
  O       1.488417     -1.836733     -0.234299
  C      -0.231108     -0.207019     -0.059038
  C      -1.242988     -1.139317     -0.223459
  C      -2.563308     -0.735088     -0.208173
  C      -2.877491      0.601474     -0.028848
  C      -1.868188      1.534574      0.135157
  C      -0.546160      1.132055      0.120314
  H       3.681673     -0.560021     -0.871911
  H       3.997113      0.807009      0.226497
  H       3.622268     -0.808039      0.879301
  H      -0.985957     -2.179108     -0.362585
  H      -3.350390     -1.464874     -0.336375
  H      -3.911965      0.916392     -0.016894
  H      -2.111677      2.578364      0.275096
  H       0.242999      1.857029      0.247986
18
Coordinates from ORCA-job ./output/methyl_benzoate/methyl_benzoate E -82.506910004928
  C       3.427777     -0.103014      0.078380
  O       2.062303      0.291546      0.088476
  C       1.172819     -0.687868     -0.080976
  O       1.486827     -1.837727     -0.234908
  C      -0.231773     -0.203226     -0.058383
  C      -1.242954     -1.137707     -0.223101
  C      -2.564454     -0.735905     -0.208293
  C      -2.879546      0.600706     -0.029093
  C      -1.871129      1.535331      0.135082
  C      -0.547917      1.135666      0.120796
  H       3.682608     -0.563124     -0.872774
  H       4.000657      0.805573      0.226465
  H       3.623596     -0.811575      0.878965
  H      -0.979256     -2.176004     -0.361770
  H      -3.350854     -1.466404     -0.336584
  H      -3.914282      0.914784     -0.017336
  H      -2.116295      2.578804      0.274808
  H       0.241873      1.860144      0.248390
18
Coordinates from ORCA-job ./output/methyl_benzoate/methyl_benzoate E -82.506912429832
  C       3.428049     -0.103707      0.078834
  O       2.062560      0.291924      0.088222
  C       1.172460     -0.687007     -0.082397
  O       1.486424     -1.837071     -0.235460
  C      -0.231812     -0.202160     -0.059003
  C      -1.242691     -1.137432     -0.223207
  C      -2.564385     -0.736430     -0.207900
  C      -2.879561      0.600291     -0.028671
  C      -1.871539      1.535382      0.134968
  C      -0.547997      1.136677      0.120220
  H       3.682165     -0.563777     -0.872473
  H       4.001179      0.804514      0.227676
  H       3.621853     -0.812942      0.879245
  H      -0.976482     -2.175100     -0.361747
  H      -3.350743     -1.467017     -0.335735
  H      -3.914327      0.914241     -0.016449
  H      -2.117303      2.578730      0.274681
  H       0.242151      1.860886      0.247339
18
Coordinates from ORCA-job ./output/methyl_benzoate/methyl_benzoate E -82.506910184450
  C       3.428170     -0.104303      0.077134
  O       2.062604      0.292166      0.090178
  C       1.171561     -0.686567     -0.077233
  O       1.485878     -1.836095     -0.234687
  C      -0.231994     -0.201406     -0.056213
  C      -1.242393     -1.137341     -0.222395
  C      -2.564124     -0.736934     -0.209311
  C      -2.879239      0.600044     -0.030398
  C      -1.871899      1.535336      0.135080
  C      -0.548037      1.137457      0.122619
  H       3.677857     -0.565559     -0.874662
  H       4.001770      0.803897      0.223444
  H       3.622533     -0.813075      0.877693
  H      -0.972384     -2.174095     -0.360360
  H      -3.350522     -1.467181     -0.338510
  H      -3.913931      0.914295     -0.019839
  H      -2.118521      2.578540      0.274482
  H       0.242671      1.860822      0.251120
18
Coordinates from ORCA-job ./output/methyl_benzoate/methyl_benzoate E -82.506913553514
  C       3.427799     -0.103974      0.078482
  O       2.062368      0.292089      0.088799
  C       1.171970     -0.686446     -0.081278
  O       1.486268     -1.836371     -0.235477
  C      -0.231901     -0.201971     -0.058383
  C      -1.242629     -1.137526     -0.222993
  C      -2.564212     -0.736732     -0.208177
  C      -2.879194      0.600145     -0.029047
  C      -1.871501      1.535307      0.134950
  C      -0.547846      1.136913      0.120732
  H       3.680526     -0.564203     -0.873060
  H       4.001087      0.804167      0.226825
  H       3.621369     -0.813182      0.878906
  H      -0.974440     -2.174712     -0.361318
  H      -3.350777     -1.467030     -0.336256
  H      -3.913899      0.914327     -0.017178
  H      -2.117675      2.578581      0.274534
  H       0.242689      1.860619      0.248081
