18
Coordinates from ORCA-job ./output/methyl_benzoate/methyl_benzoate E -82.506913553514
  C           3.42779899494332     -0.10397358680746      0.07848213417959
  O           2.06236751293535      0.29208850210984      0.08879927920329
  C           1.17196954493530     -0.68644557926549     -0.08127788948527
  O           1.48626843630597     -1.83637107584382     -0.23547721102197
  C          -0.23190143661948     -0.20197095149146     -0.05838252172335
  C          -1.24262891689406     -1.13752627893255     -0.22299340375604
  C          -2.56421232810076     -0.73673243428795     -0.20817672167593
  C          -2.87919441267780      0.60014503370134     -0.02904686883716
  C          -1.87150072608786      1.53530658499946      0.13494985322631
  C          -0.54784584400006      1.13691257893549      0.12073234267091
  H           3.68052571481654     -0.56420320129751     -0.87305954527316
  H           4.00108667214625      0.80416681947658      0.22682472223446
  H           3.62136889585116     -0.81318173222470      0.87890635481453
  H          -0.97443961525239     -2.17471180204136     -0.36131838496650
  H          -3.35077686465022     -1.46703030951658     -0.33625589253161
  H          -3.91389944207381      0.91432726607420     -0.01717787526441
  H          -2.11767466886053      2.57858128692227      0.27453366471271
  H           0.24268948328308      1.86061887948968      0.24808096349362
