! wB97X-3c OPT FREQ TightSCF
%pal
  nprocs 40
end
* xyz 0 1
C      3.554822    -0.081689     0.084439
O      2.177222     0.272874     0.089455
C      1.154512    -0.667464    -0.077322
O      1.438569    -1.886491    -0.240691
C     -0.258896    -0.229874    -0.061720
C     -1.301730    -1.161079    -0.227863
C     -2.635206    -0.740025    -0.211980
C     -2.941864     0.610437    -0.030735
C     -1.915525     1.543087     0.135071
C     -0.580177     1.127837     0.120072
H      3.825635    -0.541031    -0.889800
H      4.166694     0.831417     0.233874
H      3.766623    -0.795755     0.908287
H     -1.088157    -2.213101    -0.369885
H     -3.431456    -1.461891    -0.340374
H     -3.974606     0.934153    -0.018771
H     -2.154503     2.589402     0.275452
H      0.198044     1.869193     0.250634
*
