34
Coordinates from ORCA-job ./output/lavandulyl_acetate/lavandulyl_acetate E -112.541414779005
  C          -4.05996565303044     -0.15110050247758     -0.23843116275054
  C          -2.65164296492452      0.35776603144923     -0.24480923095297
  C          -1.70404585332927     -0.25347128929086     -0.94963646391577
  C          -0.26069107911388      0.13465121009886     -1.03383678832765
  C           0.60411174546623     -0.60762316713905     -0.01368572563752
  C           2.04522323684685     -0.14555578294554     -0.04999799532970
  O           2.08012145058991      1.23121812149731      0.33572509296803
  C           3.27647350533601      1.82490826498266      0.31883748089260
  O           4.28735645934948      1.25932799869671      0.00334513610042
  C           3.18352175364527      3.25818899849411      0.73440489716603
  C           0.54652146499607     -2.11119109884570     -0.18823700124427
  C           0.98849338602612     -2.70617522699742     -1.28735393932683
  C          -0.03568223332968     -2.87792889655236      0.95418957664878
  C          -2.42516833542167      1.57748383550105      0.59333847308561
  H          -4.37770114878015     -0.40323183012428      0.77482000907506
  H          -4.17168254012132     -1.03516686352548     -0.86234873304759
  H          -4.74851377136062      0.61325458213293     -0.60321416347835
  H          -1.98345711925976     -1.14539723952562     -1.50071769250226
  H           0.11153918128553     -0.08586533216639     -2.03633319318764
  H          -0.13372264060133      1.20502415993290     -0.88591022565802
  H           0.21462180607079     -0.36949099498934      0.97897390891085
  H           2.66288571435136     -0.72097611580453      0.63804755479466
  H           2.47763474108230     -0.24547374247582     -1.04450137968120
  H           4.17423530413021      3.69812879051693      0.73568842077699
  H           2.73978968614687      3.32751364052473      1.72462837253288
  H           2.53760921290615      3.79697285319515      0.04480533015315
  H           0.94905384758539     -3.78188322526032     -1.39768734049852
  H           1.40052544425864     -2.14769340786342     -2.11805737421894
  H           0.52994014764071     -2.69254742161406      1.86875611452196
  H          -1.05936776596052     -2.54998540067053      1.14146026698606
  H          -0.04088159470550     -3.94873752274550      0.76300228397151
  H          -3.03284205796347      2.40845714520268      0.23036228272572
  H          -2.73675618308802      1.38920617741859      1.62216872828645
  H          -1.38753614672375      1.89739325136994      0.61270648016102
