! wB97X-3c OPT FREQ TightSCF
%pal
  nprocs 40
end
* xyz 0 1
C     -3.423964    -1.544229    -1.042636
C     -3.105936    -0.466309    -0.320425
C     -2.074105     0.518994    -0.788516
S     -0.412290    -0.235194    -0.811665
S     -0.219870    -0.268305     1.314346
S      0.738080     1.639185     1.353971
C      2.423225     0.952276     1.459739
C      2.880153     0.483909     0.108450
C      3.188675    -0.793965    -0.129593
H     -2.934371    -1.745346    -1.990787
H     -4.181597    -2.233583    -0.684576
H     -3.622494    -0.284181     0.617255
H     -2.072972     1.407046    -0.121854
H     -2.328214     0.863906    -1.813082
H      2.457355     0.139879     2.217912
H      3.106052     1.758239     1.799429
H      2.952699     1.205720    -0.699663
H      3.119920    -1.544164     0.652180
H      3.509653    -1.098067    -1.120484
*
