19
Coordinates from ORCA-job ./output/diallyl_trisulfide/diallyl_trisulfide E -70.808195795707
  C      -3.423964     -1.544229     -1.042636
  C      -3.105936     -0.466309     -0.320425
  C      -2.074105      0.518994     -0.788516
  S      -0.412290     -0.235194     -0.811665
  S      -0.219870     -0.268305      1.314346
  S       0.738080      1.639185      1.353971
  C       2.423225      0.952276      1.459739
  C       2.880153      0.483909      0.108450
  C       3.188675     -0.793965     -0.129593
  H      -2.934371     -1.745346     -1.990787
  H      -4.181597     -2.233583     -0.684576
  H      -3.622494     -0.284181      0.617255
  H      -2.072972      1.407046     -0.121854
  H      -2.328214      0.863906     -1.813082
  H       2.457355      0.139879      2.217912
  H       3.106052      1.758239      1.799429
  H       2.952699      1.205720     -0.699663
  H       3.119920     -1.544164      0.652180
  H       3.509653     -1.098067     -1.120484
19
Coordinates from ORCA-job ./output/diallyl_trisulfide/diallyl_trisulfide E -70.822678486884
  C      -3.603514     -1.507905     -0.956975
  C      -3.174842     -0.393292     -0.379673
  C      -2.019165      0.410996     -0.911313
  S      -0.416893     -0.449184     -0.783867
  S      -0.222415     -0.395930      1.316318
  S       0.723281      1.469189      1.579566
  C       2.457738      0.904271      1.539145
  C       2.898836      0.560671      0.154813
  C       3.291556     -0.658222     -0.192707
  H      -3.118611     -1.901663     -1.841509
  H      -4.441059     -2.052251     -0.542720
  H      -3.682727     -0.030800      0.505353
  H      -1.943532      1.360534     -0.383495
  H      -2.181506      0.638916     -1.966104
  H       2.577653      0.062772      2.216080
  H       3.069782      1.725192      1.922350
  H       2.879435      1.346122     -0.590911
  H       3.307921     -1.468203      0.525091
  H       3.598061     -0.865403     -1.209441
19
Coordinates from ORCA-job ./output/diallyl_trisulfide/diallyl_trisulfide E -70.826673790250
  C      -3.761410     -1.513269     -0.911139
  C      -3.298652     -0.397293     -0.377737
  C      -2.195838      0.428175     -0.977096
  S      -0.553764     -0.349559     -0.976680
  S      -0.153829     -0.414095      1.045674
  S       0.762745      1.365991      1.520747
  C       2.516910      0.877337      1.557751
  C       3.069632      0.553230      0.217004
  C       3.547033     -0.635079     -0.108142
  H      -3.346252     -1.914171     -1.827577
  H      -4.557036     -2.068174     -0.435173
  H      -3.728859     -0.038948      0.549054
  H      -2.100570      1.381448     -0.470808
  H      -2.406563      0.640896     -2.021389
  H       2.625480      0.040794      2.237024
  H       3.035211      1.728533      1.994337
  H       3.053563      1.346950     -0.520552
  H       3.556310     -1.450867      0.603162
  H       3.935886     -0.826087     -1.098460
19
Coordinates from ORCA-job ./output/diallyl_trisulfide/diallyl_trisulfide E -70.826926516124
  C      -3.738235     -1.403937     -0.870429
  C      -3.162445     -0.296044     -0.442719
  C      -1.892321      0.272024     -0.996262
  S      -0.385578     -0.688089     -0.680858
  S      -0.208673     -0.573586      1.338487
  S       0.660864      1.191989      1.820123
  C       2.430061      0.839191      1.593085
  C       2.825969      0.627312      0.179478
  C       3.334180     -0.500375     -0.282752
  H      -3.304548     -1.998441     -1.666471
  H      -4.655592     -1.766501     -0.428138
  H      -3.616471      0.256945      0.371249
  H      -1.709077      1.277821     -0.628355
  H      -1.932947      0.330223     -2.083620
  H       2.684475     -0.023376      2.206028
  H       2.917838      1.713818      2.022845
  H       2.655635      1.462077     -0.492371
  H       3.491713     -1.354739      0.364390
  H       3.605150     -0.610500     -1.323710
19
Coordinates from ORCA-job ./output/diallyl_trisulfide/diallyl_trisulfide E -70.828009883666
  C      -3.734613     -1.421843     -0.834920
  C      -3.171668     -0.313020     -0.384938
  C      -2.005373      0.363982     -1.037050
  S      -0.426338     -0.529853     -0.927561
  S      -0.157936     -0.641763      1.102267
  S       0.623905      1.156568      1.694241
  C       2.414891      0.846640      1.583834
  C       2.886885      0.580602      0.200140
  C       3.452215     -0.555052     -0.174852
  H      -3.365517     -1.925510     -1.720838
  H      -4.575057     -1.869675     -0.322671
  H      -3.558804      0.150877      0.514704
  H      -1.845301      1.359924     -0.627897
  H      -2.173397      0.478412     -2.109537
  H       2.664535      0.024325      2.252872
  H       2.864719      1.756524      1.986668
  H       2.727266      1.371491     -0.524831
  H       3.603274     -1.367504      0.525537
  H       3.776314     -0.709314     -1.195167
19
Coordinates from ORCA-job ./output/diallyl_trisulfide/diallyl_trisulfide E -70.827467170573
  C      -3.597266     -1.540779     -0.912072
  C      -3.191828     -0.383899     -0.415392
  C      -2.095219      0.445875     -1.009014
  S      -0.417593     -0.227081     -0.801938
  S      -0.248150     -0.282412      1.246748
  S       0.798790      1.403123      1.780035
  C       2.528706      0.858639      1.595487
  C       2.900316      0.533695      0.193768
  C       3.292184     -0.667799     -0.197545
  H      -3.138981     -1.969626     -1.795271
  H      -4.392412     -2.102701     -0.442064
  H      -3.663663      0.004143      0.479144
  H      -2.097649      1.454457     -0.602188
  H      -2.215870      0.532251     -2.089205
  H       2.700114      0.014367      2.258398
  H       3.111121      1.702851      1.968593
  H       2.815426      1.337673     -0.528627
  H       3.364063     -1.492283      0.500889
  H       3.547911     -0.864682     -1.229742
19
Coordinates from ORCA-job ./output/diallyl_trisulfide/diallyl_trisulfide E -70.828319509214
  C      -3.747733     -1.429334     -0.893588
  C      -3.176737     -0.345215     -0.396070
  C      -1.995668      0.338134     -1.010091
  S      -0.408281     -0.528562     -0.807537
  S      -0.192734     -0.539851      1.232456
  S       0.681521      1.245226      1.730183
  C       2.458686      0.866608      1.584336
  C       2.891980      0.588685      0.191087
  C       3.398685     -0.569323     -0.198847
  H      -3.378017     -1.901836     -1.795910
  H      -4.597118     -1.888518     -0.407082
  H      -3.564492      0.088749      0.517486
  H      -1.873724      1.346651     -0.621722
  H      -2.109618      0.417393     -2.091486
  H       2.695483      0.039786      2.249353
  H       2.942419      1.763677      1.974390
  H       2.751295      1.389027     -0.526685
  H       3.527040     -1.390948      0.494895
  H       3.697011     -0.734537     -1.225165
19
Coordinates from ORCA-job ./output/diallyl_trisulfide/diallyl_trisulfide E -70.828655696086
  C      -3.801644     -1.381443     -0.920902
  C      -3.156390     -0.365962     -0.371545
  C      -1.985989      0.320199     -0.997825
  S      -0.401108     -0.561767     -0.842356
  S      -0.137195     -0.616300      1.186526
  S       0.654697      1.192583      1.717837
  C       2.446508      0.894732      1.571610
  C       2.880982      0.579510      0.186953
  C       3.434098     -0.570823     -0.161028
  H      -3.510921     -1.785315     -1.883791
  H      -4.638029     -1.851656     -0.422031
  H      -3.466942      0.001675      0.599169
  H      -1.848639      1.322841     -0.596439
  H      -2.115539      0.413329     -2.077547
  H       2.730106      0.109917      2.270838
  H       2.881414      1.834303      1.919229
  H       2.698263      1.343875     -0.560356
  H       3.604961     -1.357203      0.564104
  H       3.731369     -0.766684     -1.182444
19
Coordinates from ORCA-job ./output/diallyl_trisulfide/diallyl_trisulfide E -70.829650201942
  C      -3.967487     -1.233534     -0.971044
  C      -3.112698     -0.449564     -0.335216
  C      -1.945660      0.207607     -0.986852
  S      -0.378169     -0.711126     -0.840268
  S      -0.055653     -0.726136      1.177420
  S       0.620048      1.137117      1.668836
  C       2.429708      0.949629      1.551091
  C       2.895231      0.600895      0.185447
  C       3.507119     -0.534746     -0.107911
  H      -3.879577     -1.428364     -2.033900
  H      -4.788025     -1.712349     -0.453789
  H      -3.226851     -0.279586      0.728913
  H      -1.781196      1.213204     -0.601452
  H      -2.077853      0.278980     -2.068262
  H       2.762145      0.224179      2.292504
  H       2.783071      1.938496      1.852872
  H       2.680051      1.323816     -0.593722
  H       3.710655     -1.279890      0.651810
  H       3.825141     -0.762817     -1.116476
19
Coordinates from ORCA-job ./output/diallyl_trisulfide/diallyl_trisulfide E -70.830487388786
  C      -4.089767     -1.112346     -1.027695
  C      -3.092333     -0.586688     -0.336142
  C      -1.939560      0.114048     -0.956962
  S      -0.355527     -0.777218     -0.797075
  S      -0.003382     -0.718978      1.218350
  S       0.639091      1.176151      1.635754
  C       2.453042      1.018488      1.524459
  C       2.921334      0.609016      0.176996
  C       3.540268     -0.535566     -0.059980
  H      -4.143464     -1.023997     -2.106781
  H      -4.897068     -1.645481     -0.543483
  H      -3.068994     -0.686079      0.742863
  H      -1.803029      1.114803     -0.548399
  H      -2.053588      0.197822     -2.038770
  H       2.804036      0.342837      2.302364
  H       2.780138      2.031210      1.770372
  H       2.699816      1.291487     -0.635855
  H       3.750293     -1.240180      0.735784
  H       3.858693     -0.813518     -1.055800
19
Coordinates from ORCA-job ./output/diallyl_trisulfide/diallyl_trisulfide E -70.831101358533
  C      -4.093670     -1.158482     -1.063443
  C      -3.096295     -0.655376     -0.355927
  C      -1.972282      0.116136     -0.948573
  S      -0.347328     -0.682815     -0.740953
  S      -0.058236     -0.547582      1.291119
  S       0.713532      1.321618      1.641417
  C       2.512396      1.033859      1.532641
  C       2.958758      0.614696      0.179918
  C       3.496637     -0.566155     -0.072887
  H      -4.156186     -1.016995     -2.135778
  H      -4.888700     -1.724145     -0.596684
  H      -3.063332     -0.806068      0.717131
  H      -1.901060      1.118714     -0.530719
  H      -2.079464      0.205542     -2.028505
  H       2.804501      0.316138      2.293868
  H       2.926991      2.006311      1.801335
  H       2.795447      1.323470     -0.623711
  H       3.649157     -1.296354      0.712354
  H       3.799132     -0.846702     -1.072603
19
Coordinates from ORCA-job ./output/diallyl_trisulfide/diallyl_trisulfide E -70.831200085163
  C      -4.092891     -1.149112     -1.096163
  C      -3.096647     -0.680660     -0.363193
  C      -1.957717      0.099840     -0.915501
  S      -0.338168     -0.700847     -0.682631
  S      -0.059099     -0.516394      1.342788
  S       0.727088      1.349929      1.658417
  C       2.521170      1.050621      1.520670
  C       2.943173      0.612479      0.165878
  C       3.474849     -0.572576     -0.082750
  H      -4.135586     -0.984518     -2.166144
  H      -4.902632     -1.712884     -0.653159
  H      -3.080526     -0.859108      0.705965
  H      -1.894759      1.094992     -0.477381
  H      -2.045792      0.213170     -1.995774
  H       2.818696      0.336209      2.284172
  H       2.951606      2.020650      1.774937
  H       2.768386      1.312023     -0.643767
  H       3.638348     -1.294288      0.708089
  H       3.760500     -0.863715     -1.084451
19
Coordinates from ORCA-job ./output/diallyl_trisulfide/diallyl_trisulfide E -70.831218999929
  C      -4.093158     -1.152642     -1.078503
  C      -3.091397     -0.670611     -0.361770
  C      -1.954286      0.098227     -0.934333
  S      -0.334527     -0.698150     -0.695618
  S      -0.068993     -0.513546      1.328353
  S       0.719161      1.348048      1.651533
  C       2.511834      1.039996      1.527754
  C       2.946565      0.616923      0.172046
  C       3.480323     -0.565393     -0.086614
  H      -4.139460     -1.014922     -2.152201
  H      -4.901476     -1.703606     -0.617145
  H      -3.069536     -0.825913      0.711156
  H      -1.887507      1.100292     -0.511727
  H      -2.053869      0.198490     -2.015539
  H       2.794290      0.310722      2.284123
  H       2.950009      2.001328      1.802386
  H       2.780986      1.326511     -0.631041
  H       3.634673     -1.297568      0.696493
  H       3.776367     -0.842376     -1.089351
19
Coordinates from ORCA-job ./output/diallyl_trisulfide/diallyl_trisulfide E -70.831225450958
  C      -4.097169     -1.141559     -1.084295
  C      -3.090214     -0.677726     -0.362962
  C      -1.950312      0.093903     -0.926238
  S      -0.333146     -0.709503     -0.693761
  S      -0.060911     -0.524766      1.329846
  S       0.714130      1.343845      1.648977
  C       2.508209      1.046765      1.521257
  C       2.940594      0.613228      0.168071
  C       3.484973     -0.566399     -0.080294
  H      -4.147031     -0.983648     -2.155014
  H      -4.906271     -1.696359     -0.629023
  H      -3.064918     -0.852665      0.706843
  H      -1.881890      1.090681     -0.491979
  H      -2.050584      0.207962     -2.005640
  H       2.797830      0.326577      2.283109
  H       2.943026      2.012426      1.784810
  H       2.764543      1.312037     -0.642107
  H       3.650077     -1.288447      0.709944
  H       3.779064     -0.850541     -1.081543
19
Coordinates from ORCA-job ./output/diallyl_trisulfide/diallyl_trisulfide E -70.831225902814
  C      -4.099496     -1.142230     -1.083637
  C      -3.092817     -0.676886     -0.362868
  C      -1.952780      0.093550     -0.927194
  S      -0.335738     -0.709970     -0.694249
  S      -0.061656     -0.523894      1.328771
  S       0.714883      1.344177      1.646035
  C       2.508907      1.045487      1.521689
  C       2.943818      0.613628      0.168817
  C       3.489492     -0.565295     -0.079927
  H      -4.150116     -0.984908     -2.154418
  H      -4.908376     -1.696737     -0.627569
  H      -3.067262     -0.850418      0.707152
  H      -1.884364      1.091107     -0.494340
  H      -2.052575      0.206106     -2.006877
  H       2.796475      0.324222      2.283448
  H       2.943486      2.010800      1.787275
  H       2.768703      1.313318     -0.640835
  H       3.653686     -1.288240      0.709690
  H       3.785729     -0.848009     -1.080963
