19
Coordinates from ORCA-job ./output/diallyl_trisulfide/diallyl_trisulfide E -70.831225902814
  C          -4.09949618361633     -1.14222977162430     -1.08363661357056
  C          -3.09281721497780     -0.67688556459929     -0.36286836237573
  C          -1.95277991502572      0.09354962619796     -0.92719369879800
  S          -0.33573771035270     -0.70996976785551     -0.69424929568283
  S          -0.06165577974917     -0.52389352109283      1.32877090451406
  S           0.71488349148224      1.34417720972377      1.64603483921583
  C           2.50890722079535      1.04548742956621      1.52168925227419
  C           2.94381763990814      0.61362836808060      0.16881683546724
  C           3.48949183051319     -0.56529483560077     -0.07992667526486
  H          -4.15011557505603     -0.98490778827132     -2.15441818381500
  H          -4.90837595907822     -1.69673682841321     -0.62756936718220
  H          -3.06726211697116     -0.85041799324178      0.70715179324797
  H          -1.88436364094567      1.09110725097714     -0.49433967422865
  H          -2.05257516454606      0.20610644558313     -2.00687692010643
  H           2.79647498187523      0.32422206780796      2.28344823152611
  H           2.94348588171789      2.01079988939917      1.78727475134623
  H           2.76870274088947      1.31331770229057     -0.64083469057946
  H           3.65368594059820     -1.28823955896999      0.70969044543738
  H           3.78572853253917     -0.84800935995749     -1.08096257142528
