27
Coordinates from ORCA-job ./output/_e_verbenol/_e_verbenol E -82.629215111975
  C      -2.045884     -1.847903      1.095046
  C      -1.304403     -0.739842      0.410209
  C      -1.676298      0.565432      0.563319
  C      -0.867931      1.661228     -0.160670
  C       0.307671      1.004336     -0.973796
  C      -0.339422     -0.157688     -1.756413
  C      -0.097824     -1.015303     -0.499631
  C       1.058789     -0.055997     -0.117619
  C       2.406844     -0.473104     -0.759160
  C       1.308107      0.227709      1.390335
  O      -0.377661      2.586826      0.771057
  H      -2.002350     -1.702787      2.194904
  H      -1.595466     -2.831827      0.847998
  H      -3.106369     -1.848337      0.766484
  H      -2.525985      0.835044      1.183394
  H      -1.553867      2.181488     -0.867657
  H       0.932363      1.697023     -1.578478
  H      -1.404875     -0.017668     -2.054531
  H       0.267698     -0.485807     -2.627601
  H       0.167397     -2.079554     -0.680022
  H       2.330330     -0.681098     -1.845218
  H       3.154652      0.337644     -0.626440
  H       2.791614     -1.392542     -0.268548
  H       0.407171      0.453235      1.988103
  H       1.781845     -0.659466      1.861696
  H       2.001717      1.088757      1.494859
  H      -0.017866      3.350202      0.248382
27
Coordinates from ORCA-job ./output/_e_verbenol/_e_verbenol E -82.642514172867
  C      -2.055351     -1.829506      1.087774
  C      -1.308630     -0.721462      0.403803
  C      -1.665919      0.560414      0.528484
  C      -0.869298      1.642543     -0.170432
  C       0.295829      1.004180     -0.947396
  C      -0.302648     -0.166987     -1.752172
  C      -0.108798     -1.006255     -0.471980
  C       1.054497     -0.050901     -0.099344
  C       2.365623     -0.464298     -0.759943
  C       1.361650      0.214516      1.371519
  O      -0.432942      2.589919      0.781177
  H      -2.032907     -1.688949      2.168864
  H      -1.612489     -2.798391      0.861762
  H      -3.095225     -1.845240      0.761490
  H      -2.520588      0.843926      1.128686
  H      -1.534407      2.137942     -0.891894
  H       0.905554      1.715976     -1.509639
  H      -1.331969     -0.046712     -2.088749
  H       0.327051     -0.491323     -2.579953
  H       0.131745     -2.061355     -0.609229
  H       2.260278     -0.665788     -1.826256
  H       3.107329      0.328200     -0.644203
  H       2.753943     -1.368299     -0.287232
  H       0.494819      0.447091      1.978440
  H       1.837148     -0.668852      1.807918
  H       2.058126      1.049680      1.457429
  H      -0.082424      3.339930      0.301077
27
Coordinates from ORCA-job ./output/_e_verbenol/_e_verbenol E -82.643944062873
  C      -2.045035     -1.826507      1.088879
  C      -1.305864     -0.713620      0.402875
  C      -1.645616      0.562225      0.531431
  C      -0.864198      1.631424     -0.175001
  C       0.289634      1.000789     -0.941872
  C      -0.288428     -0.169312     -1.761662
  C      -0.116988     -1.004154     -0.472577
  C       1.052183     -0.053071     -0.095802
  C       2.355087     -0.464647     -0.766159
  C       1.350564      0.208757      1.366661
  O      -0.442368      2.592978      0.776679
  H      -2.013906     -1.698961      2.168935
  H      -1.609895     -2.794096      0.854253
  H      -3.088578     -1.845262      0.782684
  H      -2.486913      0.863248      1.143339
  H      -1.527910      2.119052     -0.899846
  H       0.892939      1.737740     -1.474508
  H      -1.307957     -0.056978     -2.121781
  H       0.355005     -0.485609     -2.574732
  H       0.108529     -2.063439     -0.580614
  H       2.246405     -0.664095     -1.828996
  H       3.098097      0.323785     -0.652491
  H       2.748942     -1.365666     -0.297881
  H       0.474426      0.460238      1.952911
  H       1.810158     -0.676873      1.807353
  H       2.056120      1.032229      1.460802
  H      -0.094433      3.349826      0.307123
27
Coordinates from ORCA-job ./output/_e_verbenol/_e_verbenol E -82.644206985126
  C      -2.041996     -1.827652      1.088597
  C      -1.311275     -0.710707      0.402030
  C      -1.652904      0.565110      0.527057
  C      -0.869229      1.630079     -0.179658
  C       0.289758      1.000603     -0.938049
  C      -0.284172     -0.168160     -1.761000
  C      -0.119426     -1.003152     -0.471746
  C       1.056179     -0.054370     -0.092793
  C       2.354652     -0.467667     -0.771381
  C       1.356855      0.204686      1.369133
  O      -0.457768      2.597368      0.773580
  H      -2.009445     -1.704796      2.170360
  H      -1.604477     -2.794423      0.851156
  H      -3.088684     -1.853538      0.790070
  H      -2.489298      0.876121      1.141561
  H      -1.527295      2.118290     -0.910259
  H       0.887973      1.752033     -1.458837
  H      -1.302258     -0.058093     -2.130337
  H       0.363676     -0.480423     -2.572622
  H       0.097658     -2.066547     -0.566128
  H       2.243643     -0.669442     -1.833504
  H       3.100442      0.320150     -0.661450
  H       2.753554     -1.367632     -0.302653
  H       0.481602      0.477200      1.946824
  H       1.800199     -0.687996      1.813913
  H       2.077917      1.015659      1.466038
  H      -0.105883      3.357302      0.310099
27
Coordinates from ORCA-job ./output/_e_verbenol/_e_verbenol E -82.644280755932
  C      -2.032626     -1.830485      1.089584
  C      -1.311054     -0.710281      0.401268
  C      -1.653361      0.566370      0.527932
  C      -0.868418      1.629926     -0.182482
  C       0.291112      0.999528     -0.942152
  C      -0.288443     -0.165973     -1.763305
  C      -0.120379     -1.002842     -0.477915
  C       1.056563     -0.055003     -0.095097
  C       2.356803     -0.469477     -0.769678
  C       1.347374      0.204387      1.368702
  O      -0.455666      2.596519      0.771688
  H      -1.989833     -1.715196      2.172382
  H      -1.597754     -2.796423      0.842744
  H      -3.083689     -1.857595      0.805094
  H      -2.484589      0.884462      1.145632
  H      -1.524037      2.121965     -0.913040
  H       0.885088      1.758857     -1.457357
  H      -1.307216     -0.054598     -2.131396
  H       0.355341     -0.476203     -2.579690
  H       0.091707     -2.068167     -0.565201
  H       2.252009     -0.677725     -1.831150
  H       3.101970      0.319730     -0.660549
  H       2.757916     -1.365630     -0.294341
  H       0.468798      0.495419      1.932714
  H       1.772513     -0.692993      1.822227
  H       2.080291      1.004599      1.471695
  H      -0.100425      3.356828      0.311692
27
Coordinates from ORCA-job ./output/_e_verbenol/_e_verbenol E -82.644294759334
  C      -2.032138     -1.830342      1.090038
  C      -1.312586     -0.709729      0.401078
  C      -1.657751      0.566414      0.526293
  C      -0.870928      1.630444     -0.183073
  C       0.292078      1.000570     -0.941173
  C      -0.285552     -0.165474     -1.762336
  C      -0.119747     -1.001775     -0.477269
  C       1.056873     -0.054204     -0.094550
  C       2.355670     -0.469617     -0.770500
  C       1.349926      0.203105      1.369848
  O      -0.460514      2.596946      0.771617
  H      -1.983446     -1.718251      2.173074
  H      -1.600129     -2.796406      0.838230
  H      -3.084998     -1.855061      0.811540
  H      -2.490654      0.885160      1.141144
  H      -1.524565      2.122440     -0.915397
  H       0.884639      1.761192     -1.455942
  H      -1.303401     -0.054309     -2.133003
  H       0.360051     -0.476606     -2.577829
  H       0.091726     -2.067285     -0.563565
  H       2.248481     -0.681038     -1.831614
  H       3.100830      0.320254     -0.665095
  H       2.758273     -1.364421     -0.293641
  H       0.473886      0.499809      1.934627
  H       1.769327     -0.697238      1.823094
  H       2.088264      0.998505      1.472732
  H      -0.103616      3.356917      0.311674
27
Coordinates from ORCA-job ./output/_e_verbenol/_e_verbenol E -82.644308962776
  C      -2.030448     -1.830532      1.090437
  C      -1.312894     -0.709693      0.400059
  C      -1.659512      0.565947      0.524930
  C      -0.872065      1.630542     -0.183922
  C       0.292604      1.001252     -0.941508
  C      -0.284543     -0.164962     -1.762463
  C      -0.119152     -1.000900     -0.477855
  C       1.056313     -0.053280     -0.094513
  C       2.355634     -0.469032     -0.769036
  C       1.348999      0.202572      1.370520
  O      -0.462483      2.596672      0.770922
  H      -1.966992     -1.726178      2.173474
  H      -1.607670     -2.797456      0.826651
  H      -3.086985     -1.846779      0.825827
  H      -2.493338      0.885229      1.138044
  H      -1.524688      2.122077     -0.917331
  H       0.883916      1.762405     -1.456569
  H      -1.301962     -0.053448     -2.134147
  H       0.361181     -0.477081     -2.577576
  H       0.092214     -2.066334     -0.564145
  H       2.248033     -0.684968     -1.829245
  H       3.099646      0.322325     -0.667203
  H       2.759613     -1.361476     -0.289064
  H       0.474640      0.504833      1.934717
  H       1.761668     -0.700553      1.824329
  H       2.092451      0.993079      1.474069
  H      -0.104180      3.355740      0.310597
27
Coordinates from ORCA-job ./output/_e_verbenol/_e_verbenol E -82.644502295046
  C      -2.010642     -1.832457      1.095040
  C      -1.316242     -0.709738      0.387291
  C      -1.678631      0.560136      0.508594
  C      -0.885084      1.631177     -0.194691
  C       0.298380      1.008931     -0.945729
  C      -0.272333     -0.159589     -1.764886
  C      -0.112102     -0.991045     -0.484779
  C       1.049345     -0.042451     -0.093720
  C       2.355921     -0.461395     -0.750296
  C       1.335882      0.196886      1.378633
  O      -0.485645      2.594091      0.761179
  H      -1.760824     -1.835274      2.155865
  H      -1.724249     -2.799564      0.688450
  H      -3.092681     -1.742590      1.018691
  H      -2.522711      0.885577      1.101915
  H      -1.526576      2.116048     -0.940872
  H       0.875626      1.775878     -1.464141
  H      -1.284422     -0.044302     -2.148948
  H       0.375361     -0.483066     -2.574871
  H       0.098719     -2.055494     -0.571161
  H       2.245050     -0.729151     -1.798745
  H       3.086288      0.345858     -0.689296
  H       2.774726     -1.325885     -0.234835
  H       0.482414      0.559948      1.936480
  H       1.671087     -0.734703      1.837680
  H       2.134326      0.930081      1.491032
  H      -0.110986      3.342094      0.296123
27
Coordinates from ORCA-job ./output/_e_verbenol/_e_verbenol E -82.644579291443
  C      -1.993754     -1.833205      1.098525
  C      -1.318660     -0.709795      0.376514
  C      -1.693744      0.555108      0.494782
  C      -0.895862      1.631500     -0.204092
  C       0.302843      1.015177     -0.949313
  C      -0.262426     -0.155454     -1.767090
  C      -0.106295     -0.982940     -0.490218
  C       1.043100     -0.033364     -0.092760
  C       2.356299     -0.454641     -0.733476
  C       1.323748      0.192498      1.385557
  O      -0.504957      2.592276      0.752090
  H      -1.592808     -1.938380      2.106419
  H      -1.847014     -2.782548      0.589098
  H      -3.063219     -1.660501      1.195600
  H      -2.546043      0.885229      1.071659
  H      -1.528409      2.109914     -0.960869
  H       0.868778      1.786076     -1.471006
  H      -1.269962     -0.037095     -2.161355
  H       0.386832     -0.488510     -2.572408
  H       0.104588     -2.046475     -0.577100
  H       2.244101     -0.763600     -1.770663
  H       3.075767      0.363324     -0.705094
  H       2.785363     -1.295906     -0.190210
  H       0.489928      0.601029      1.939668
  H       1.596284     -0.757812      1.846782
  H       2.162308      0.877574      1.505960
  H      -0.116788      3.330519      0.283002
27
Coordinates from ORCA-job ./output/_e_verbenol/_e_verbenol E -82.644904184066
  C      -1.993912     -1.831682      1.095654
  C      -1.315269     -0.709786      0.377229
  C      -1.686741      0.555111      0.496979
  C      -0.893489      1.630993     -0.204687
  C       0.300904      1.013336     -0.950944
  C      -0.265576     -0.158414     -1.768523
  C      -0.106708     -0.984268     -0.488547
  C       1.040710     -0.033658     -0.091714
  C       2.358475     -0.453194     -0.727312
  C       1.318465      0.195394      1.386198
  O      -0.500495      2.594424      0.747907
  H      -1.564978     -1.961334      2.088768
  H      -1.878532     -2.774300      0.565511
  H      -3.055647     -1.636748      1.223727
  H      -2.538190      0.883475      1.076267
  H      -1.530186      2.103867     -0.961343
  H       0.869389      1.778906     -1.477253
  H      -1.273802     -0.039487     -2.160350
  H       0.381914     -0.493307     -2.572522
  H       0.106956     -2.046971     -0.579367
  H       2.250239     -0.752115     -1.766932
  H       3.079623      0.362011     -0.688014
  H       2.779578     -1.301464     -0.189930
  H       0.477593      0.581824      1.945850
  H       1.611962     -0.750443      1.842928
  H       2.141753      0.897903      1.505814
  H      -0.114038      3.329926      0.274608
27
Coordinates from ORCA-job ./output/_e_verbenol/_e_verbenol E -82.646201848620
  C      -1.996237     -1.830951      1.083283
  C      -1.312473     -0.709858      0.379208
  C      -1.672750      0.557468      0.498538
  C      -0.887166      1.626924     -0.209532
  C       0.294104      1.003089     -0.954470
  C      -0.271129     -0.173399     -1.772049
  C      -0.110717     -0.992819     -0.479660
  C       1.037272     -0.037285     -0.085112
  C       2.364743     -0.451114     -0.712415
  C       1.303227      0.213784      1.388542
  O      -0.490474      2.597779      0.737415
  H      -1.460074     -2.070064      2.001856
  H      -2.012169     -2.733619      0.474627
  H      -3.015287     -1.564688      1.348891
  H      -2.517555      0.887268      1.088197
  H      -1.532118      2.091331     -0.965397
  H       0.870537      1.761170     -1.485238
  H      -1.279959     -0.057738     -2.163024
  H       0.377949     -0.508787     -2.571128
  H       0.107113     -2.055809     -0.569386
  H       2.268834     -0.717023     -1.760635
  H       3.091202      0.355827     -0.638771
  H       2.766835     -1.320078     -0.194845
  H       0.440972      0.549373      1.951378
  H       1.652961     -0.713029      1.844250
  H       2.083703      0.963038      1.503724
  H      -0.101347      3.329213      0.261753
27
Coordinates from ORCA-job ./output/_e_verbenol/_e_verbenol E -82.647249088016
  C      -2.001910     -1.832929      1.075111
  C      -1.315570     -0.708957      0.383271
  C      -1.668592      0.562821      0.497175
  C      -0.884941      1.624392     -0.216496
  C       0.290381      0.994676     -0.952691
  C      -0.270345     -0.184347     -1.771598
  C      -0.114295     -1.001895     -0.470412
  C       1.041539     -0.043210     -0.077300
  C       2.368361     -0.454869     -0.709083
  C       1.299981      0.226622      1.391618
  O      -0.493410      2.606711      0.726599
  H      -1.397757     -2.162097      1.922433
  H      -2.120492     -2.692166      0.415069
  H      -2.976950     -1.529559      1.447200
  H      -2.510285      0.893002      1.093070
  H      -1.534088      2.087325     -0.971320
  H       0.877268      1.752344     -1.476938
  H      -1.279994     -0.075840     -2.163854
  H       0.385686     -0.511158     -2.568723
  H       0.104209     -2.066787     -0.551224
  H       2.279254     -0.699542     -1.763126
  H       3.098067      0.348049     -0.615348
  H       2.765781     -1.334046     -0.203070
  H       0.421365      0.535768      1.946280
  H       1.688144     -0.682106      1.854517
  H       2.050872      1.006848      1.503230
  H      -0.102280      3.340951      0.255612
27
Coordinates from ORCA-job ./output/_e_verbenol/_e_verbenol E -82.647886478473
  C      -2.006647     -1.834785      1.071855
  C      -1.320740     -0.708374      0.383633
  C      -1.675436      0.565047      0.489892
  C      -0.887506      1.623339     -0.223935
  C       0.291238      0.990852     -0.950934
  C      -0.262847     -0.191490     -1.768234
  C      -0.112985     -1.006267     -0.463796
  C       1.046041     -0.044500     -0.071512
  C       2.368926     -0.456600     -0.707355
  C       1.301870      0.235311      1.395539
  O      -0.503746      2.611006      0.719108
  H      -1.345187     -2.254944      1.832475
  H      -2.238255     -2.640333      0.374200
  H      -2.922943     -1.505706      1.556072
  H      -2.520735      0.891894      1.082961
  H      -1.534712      2.088709     -0.979402
  H       0.884629      1.748052     -1.470169
  H      -1.272447     -0.090087     -2.163328
  H       0.400430     -0.513023     -2.563227
  H       0.107073     -2.071911     -0.535697
  H       2.281619     -0.700552     -1.762491
  H       3.098268      0.347870     -0.612429
  H       2.770583     -1.333709     -0.199440
  H       0.416498      0.541721      1.941080
  H       1.701792     -0.664265      1.867393
  H       2.043832      1.025549      1.504701
  H      -0.108614      3.347200      0.253041
27
Coordinates from ORCA-job ./output/_e_verbenol/_e_verbenol E -82.648096190156
  C      -2.009815     -1.836307      1.068537
  C      -1.320153     -0.707837      0.387015
  C      -1.682349      0.564659      0.483795
  C      -0.891445      1.622398     -0.230665
  C       0.293338      0.989108     -0.950528
  C      -0.255669     -0.197640     -1.762935
  C      -0.108199     -1.007460     -0.457699
  C       1.049013     -0.042073     -0.067085
  C       2.369373     -0.455487     -0.703034
  C       1.304587      0.243153      1.399350
  O      -0.513751      2.612910      0.711547
  H      -1.310180     -2.350089      1.730707
  H      -2.359364     -2.574486      0.345240
  H      -2.854936     -1.491034      1.659600
  H      -2.532534      0.887249      1.071652
  H      -1.535268      2.088010     -0.988621
  H       0.888437      1.744770     -1.469619
  H      -1.265313     -0.101863     -2.159350
  H       0.410933     -0.518615     -2.556505
  H       0.113609     -2.073064     -0.521841
  H       2.283268     -0.705791     -1.757219
  H       3.097486      0.351294     -0.612552
  H       2.775776     -1.327318     -0.189189
  H       0.417357      0.552453      1.939283
  H       1.707192     -0.651661      1.877992
  H       2.044704      1.036075      1.505999
  H      -0.116100      3.348645      0.246128
27
Coordinates from ORCA-job ./output/_e_verbenol/_e_verbenol E -82.647863018410
  C      -2.028940     -1.840164      1.065631
  C      -1.321751     -0.708586      0.396872
  C      -1.685935      0.566826      0.485559
  C      -0.890067      1.621580     -0.228329
  C       0.294497      0.985608     -0.945003
  C      -0.251550     -0.202479     -1.754271
  C      -0.105984     -1.013320     -0.450398
  C       1.060895     -0.045953     -0.065593
  C       2.367258     -0.460579     -0.721321
  C       1.325679      0.249781      1.396040
  O      -0.514413      2.612905      0.717849
  H      -1.371865     -2.331047      1.785840
  H      -2.322186     -2.597403      0.337049
  H      -2.923701     -1.507042      1.589755
  H      -2.536325      0.880937      1.078462
  H      -1.532843      2.100285     -0.979596
  H       0.897531      1.742550     -1.455458
  H      -1.264413     -0.116081     -2.145874
  H       0.419102     -0.511954     -2.552340
  H       0.115443     -2.079969     -0.502454
  H       2.278381     -0.698097     -1.779621
  H       3.100433      0.343390     -0.624285
  H       2.781452     -1.335363     -0.215513
  H       0.431044      0.552135      1.927596
  H       1.753990     -0.628832      1.883937
  H       2.049965      1.060349      1.494457
  H      -0.125701      3.360527      0.261010
27
Coordinates from ORCA-job ./output/_e_verbenol/_e_verbenol E -82.648130954758
  C      -2.016205     -1.837089      1.067399
  C      -1.318865     -0.708616      0.390231
  C      -1.682623      0.564083      0.485323
  C      -0.891001      1.621839     -0.228878
  C       0.293678      0.988345     -0.949673
  C      -0.254975     -0.199535     -1.760024
  C      -0.106196     -1.008563     -0.455717
  C       1.052051     -0.042009     -0.067360
  C       2.369409     -0.455425     -0.707843
  C       1.311521      0.245498      1.397891
  O      -0.511909      2.611276      0.714373
  H      -1.333546     -2.344116      1.751608
  H      -2.347686     -2.581025      0.341580
  H      -2.879460     -1.494019      1.633648
  H      -2.532693      0.883576      1.074995
  H      -1.534368      2.090869     -0.985024
  H       0.889346      1.743890     -1.468342
  H      -1.265799     -0.106077     -2.154186
  H       0.411091     -0.519005     -2.555312
  H       0.115651     -2.074287     -0.516343
  H       2.283118     -0.701456     -1.763269
  H       3.099399      0.349858     -0.614633
  H       2.777123     -1.328782     -0.197092
  H       0.423315      0.552051      1.937648
  H       1.721751     -0.645028      1.878123
  H       2.047224      1.043326      1.501316
  H      -0.119353      3.350422      0.249566
27
Coordinates from ORCA-job ./output/_e_verbenol/_e_verbenol E -82.648134754030
  C      -2.016370     -1.836817      1.067010
  C      -1.317933     -0.708813      0.390616
  C      -1.682071      0.563714      0.486005
  C      -0.891117      1.621595     -0.228753
  C       0.293730      0.988210     -0.949821
  C      -0.254774     -0.200136     -1.759642
  C      -0.105379     -1.008550     -0.455360
  C       1.052070     -0.041613     -0.067216
  C       2.369739     -0.454924     -0.707280
  C       1.311921      0.245877      1.398015
  O      -0.511576      2.611444      0.713738
  H      -1.334051     -2.349863      1.746930
  H      -2.354607     -2.576147      0.339465
  H      -2.876439     -1.492313      1.637230
  H      -2.532313      0.882674      1.075627
  H      -1.534562      2.089855     -0.985252
  H       0.888795      1.743665     -1.469134
  H      -1.265660     -0.106754     -2.153642
  H       0.410764     -0.520153     -2.555096
  H       0.116355     -2.074327     -0.515288
  H       2.284003     -0.700075     -1.762943
  H       3.100132      0.349812     -0.613085
  H       2.776942     -1.328863     -0.197177
  H       0.423840      0.551445      1.938505
  H       1.723129     -0.644313      1.877929
  H       2.046923      1.044339      1.500997
  H      -0.121493      3.351030      0.247621
27
Coordinates from ORCA-job ./output/_e_verbenol/_e_verbenol E -82.648136622093
  C      -2.017114     -1.836513      1.066554
  C      -1.317046     -0.709126      0.391124
  C      -1.681339      0.563351      0.486834
  C      -0.890860      1.621220     -0.228233
  C       0.293757      0.987815     -0.949862
  C      -0.254660     -0.200964     -1.759193
  C      -0.104538     -1.008820     -0.454795
  C       1.052382     -0.041459     -0.067091
  C       2.370144     -0.454599     -0.707265
  C       1.312916      0.246553      1.397915
  O      -0.510360      2.611231      0.713684
  H      -1.337212     -2.353319      1.745889
  H      -2.358359     -2.573105      0.337491
  H      -2.876848     -1.490788      1.636598
  H      -2.531685      0.881627      1.076644
  H      -1.534446      2.089190     -0.984771
  H       0.888299      1.743249     -1.469700
  H      -1.265698     -0.107715     -2.152873
  H       0.410274     -0.521307     -2.554986
  H       0.116927     -2.074718     -0.513801
  H       2.284985     -0.697429     -1.763495
  H       3.101354      0.349117     -0.611012
  H       2.776461     -1.329912     -0.198831
  H       0.424730      0.550140      1.939391
  H       1.726493     -0.642683      1.877482
  H       2.046222      1.046626      1.499995
  H      -0.124783      3.352341      0.246310
27
Coordinates from ORCA-job ./output/_e_verbenol/_e_verbenol E -82.648137018489
  C      -2.017334     -1.836379      1.066491
  C      -1.316819     -0.709158      0.391316
  C      -1.681031      0.563362      0.487102
  C      -0.890598      1.621147     -0.228042
  C       0.293864      0.987639     -0.949816
  C      -0.254612     -0.201149     -1.759101
  C      -0.104356     -1.008955     -0.454611
  C       1.052583     -0.041591     -0.067050
  C       2.370277     -0.454760     -0.707388
  C       1.313287      0.246591      1.397874
  O      -0.509749      2.611261      0.713671
  H      -1.338360     -2.353414      1.746544
  H      -2.358273     -2.572912      0.337190
  H      -2.877637     -1.490403      1.635555
  H      -2.531420      0.881496      1.076940
  H      -1.534260      2.089096     -0.984531
  H       0.888325      1.743125     -1.469673
  H      -1.265686     -0.107884     -2.152697
  H       0.410158     -0.521484     -2.555031
  H       0.116889     -2.074902     -0.513392
  H       2.285263     -0.696296     -1.763925
  H       3.101919      0.348437     -0.610061
  H       2.776050     -1.330851     -0.199848
  H       0.424964      0.549157      1.939707
  H       1.727960     -0.642260      1.877220
  H       2.045744      1.047457      1.499707
  H      -0.127155      3.353629      0.245852
