34
Coordinates from ORCA-job ./output/furanoeudesma_1_3_diene/furanoeudesma_1_3_diene E -112.309272805315
  C      -1.647541      2.608052      1.555788
  C      -1.521297      1.526449      0.523499
  C      -2.183544      1.629302     -0.643077
  C      -2.096282      0.555079     -1.655969
  C      -1.580555     -0.640977     -1.339856
  C      -1.183152     -0.948438      0.095113
  C      -0.576495      0.353997      0.741168
  C       0.809213      0.746760      0.154238
  C       1.670293     -0.446942     -0.098145
  C       1.206442     -1.730907     -0.195819
  C      -0.183574     -2.142837      0.153146
  O       2.168096     -2.536252     -0.585650
  C       3.256219     -1.820073     -0.777465
  C       2.994752     -0.493349     -0.480820
  C       3.917615      0.663997     -0.683942
  C      -2.458267     -1.372702      0.861862
  H      -1.346111      3.583400      1.118548
  H      -2.700089      2.672184      1.903464
  H      -0.997249      2.401406      2.431454
  H      -2.794388      2.498753     -0.853153
  H      -2.454327      0.739625     -2.660433
  H      -1.511071     -1.406062     -2.103602
  H      -0.444984      0.174988      1.832073
  H       0.687634      1.277350     -0.815644
  H       1.326831      1.434298      0.857273
  H      -0.146099     -2.556440      1.184525
  H      -0.508627     -2.963336     -0.523087
  H       4.198397     -2.222659     -1.125288
  H       4.971743      0.315673     -0.701660
  H       3.681356      1.160588     -1.647896
  H       3.798076      1.394193      0.143396
  H      -2.880956     -2.304555      0.426951
  H      -3.244638     -0.589671      0.815705
  H      -2.227423     -1.560897      1.932523
34
Coordinates from ORCA-job ./output/furanoeudesma_1_3_diene/furanoeudesma_1_3_diene E -112.322696738878
  C      -1.637587      2.574338      1.571785
  C      -1.534114      1.504784      0.521137
  C      -2.195120      1.602155     -0.635244
  C      -2.079403      0.552359     -1.648739
  C      -1.564906     -0.636071     -1.335549
  C      -1.178187     -0.941150      0.090414
  C      -0.589075      0.344490      0.719093
  C       0.775974      0.753125      0.130455
  C       1.646763     -0.424960     -0.124075
  C       1.177318     -1.696744     -0.186165
  C      -0.197483     -2.120595      0.167308
  O       2.148501     -2.527208     -0.556865
  C       3.256072     -1.803400     -0.756781
  C       3.004882     -0.483100     -0.503218
  C       3.946261      0.659163     -0.695837
  C      -2.441534     -1.355398      0.849941
  H      -1.356195      3.543967      1.161153
  H      -2.659885      2.639601      1.943718
  H      -0.983682      2.364952      2.417603
  H      -2.815298      2.465035     -0.842730
  H      -2.430363      0.744846     -2.653955
  H      -1.489095     -1.407107     -2.092342
  H      -0.452657      0.159595      1.788255
  H       0.629038      1.277064     -0.816267
  H       1.269102      1.449671      0.812576
  H      -0.181760     -2.519361      1.186871
  H      -0.527690     -2.930281     -0.487558
  H       4.180630     -2.251943     -1.073837
  H       4.977932      0.310938     -0.705947
  H       3.739602      1.161136     -1.641334
  H       3.840949      1.383481      0.111206
  H      -2.854613     -2.271862      0.427094
  H      -3.208351     -0.584558      0.794163
  H      -2.216029     -1.536966      1.902892
34
Coordinates from ORCA-job ./output/furanoeudesma_1_3_diene/furanoeudesma_1_3_diene E -112.325770135577
  C      -1.620779      2.557770      1.582512
  C      -1.546058      1.498105      0.519851
  C      -2.217671      1.588594     -0.627082
  C      -2.088202      0.552793     -1.644553
  C      -1.567717     -0.632471     -1.339096
  C      -1.179350     -0.939161      0.083013
  C      -0.597010      0.341849      0.698786
  C       0.755086      0.763334      0.097333
  C       1.634117     -0.405471     -0.159222
  C       1.167424     -1.668645     -0.183820
  C      -0.196439     -2.108464      0.167591
  O       2.145399     -2.527701     -0.519147
  C       3.260168     -1.792614     -0.727869
  C       3.015198     -0.477268     -0.523668
  C       3.970494      0.653237     -0.695575
  C      -2.439796     -1.353933      0.843262
  H      -1.366337      3.535333      1.181264
  H      -2.625026      2.617588      1.994979
  H      -0.939954      2.348430      2.402436
  H      -2.848651      2.445560     -0.828662
  H      -2.436654      0.754630     -2.648972
  H      -1.485963     -1.406936     -2.092290
  H      -0.449077      0.151631      1.762834
  H       0.581942      1.286221     -0.842006
  H       1.236210      1.475802      0.766769
  H      -0.195621     -2.507895      1.183013
  H      -0.527278     -2.915465     -0.484322
  H       4.170618     -2.289965     -1.008118
  H       4.996466      0.298356     -0.704843
  H       3.784583      1.176400     -1.630587
  H       3.875422      1.371743      0.114147
  H      -2.845963     -2.272655      0.426793
  H      -3.206380     -0.588493      0.780989
  H      -2.213204     -1.530240      1.893479
34
Coordinates from ORCA-job ./output/furanoeudesma_1_3_diene/furanoeudesma_1_3_diene E -112.326620226163
  C      -1.603481      2.555759      1.583865
  C      -1.551133      1.501707      0.517153
  C      -2.237250      1.587500     -0.622004
  C      -2.114843      0.552607     -1.641798
  C      -1.587445     -0.632152     -1.345024
  C      -1.184689     -0.939695      0.074377
  C      -0.598983      0.344129      0.683278
  C       0.747073      0.770698      0.067369
  C       1.631067     -0.394329     -0.185503
  C       1.167690     -1.654017     -0.186163
  C      -0.193541     -2.105673      0.152269
  O       2.150858     -2.530141     -0.490598
  C       3.270698     -1.789993     -0.694885
  C       3.025721     -0.475065     -0.528750
  C       3.985951      0.650964     -0.682830
  C      -2.439629     -1.359248      0.844679
  H      -1.387452      3.543206      1.180175
  H      -2.591013      2.598193      2.041359
  H      -0.885264      2.357286      2.375827
  H      -2.874853      2.441367     -0.816811
  H      -2.470121      0.759577     -2.642833
  H      -1.507228     -1.408457     -2.096604
  H      -0.439715      0.152678      1.747299
  H       0.557521      1.291756     -0.871639
  H       1.224353      1.494931      0.728933
  H      -0.203252     -2.520231      1.162595
  H      -0.519750     -2.906220     -0.512203
  H       4.170977     -2.321717     -0.945981
  H       5.011644      0.291371     -0.706055
  H       3.802647      1.200875     -1.604759
  H       3.901976      1.356019      0.141863
  H      -2.841291     -2.284393      0.434419
  H      -3.212736     -0.598706      0.782980
  H      -2.204511     -1.530592      1.895221
34
Coordinates from ORCA-job ./output/furanoeudesma_1_3_diene/furanoeudesma_1_3_diene E -112.326954723674
  C      -1.592723      2.555645      1.582601
  C      -1.551102      1.505708      0.513862
  C      -2.248663      1.589815     -0.619334
  C      -2.136308      0.553320     -1.640509
  C      -1.604814     -0.631582     -1.349949
  C      -1.188308     -0.939068      0.067053
  C      -0.596654      0.346877      0.671607
  C       0.744966      0.773791      0.042749
  C       1.631787     -0.390676     -0.200728
  C       1.170031     -1.649744     -0.187692
  C      -0.193210     -2.105849      0.135192
  O       2.157656     -2.532863     -0.465895
  C       3.280197     -1.792505     -0.666509
  C       3.032748     -0.475957     -0.522623
  C       3.992307      0.650389     -0.667471
  C      -2.437204     -1.359463      0.848248
  H      -1.433650      3.552548      1.172792
  H      -2.559041      2.562629      2.088077
  H      -0.830574      2.382538      2.340258
  H      -2.889234      2.442665     -0.808917
  H      -2.501049      0.762247     -2.637766
  H      -1.529258     -1.408860     -2.100869
  H      -0.427588      0.156083      1.735328
  H       0.546070      1.288635     -0.899075
  H       1.222036      1.506495      0.696886
  H      -0.210302     -2.537171      1.139333
  H      -0.513829     -2.897383     -0.544476
  H       4.174441     -2.343179     -0.899880
  H       5.017604      0.289216     -0.718794
  H       3.795065      1.225985     -1.572014
  H       3.924810      1.336486      0.176208
  H      -2.838048     -2.288906      0.443944
  H      -3.214516     -0.601459      0.788890
  H      -2.193642     -1.526407      1.898692
34
Coordinates from ORCA-job ./output/furanoeudesma_1_3_diene/furanoeudesma_1_3_diene E -112.327479398686
  C      -1.579956      2.553111      1.581434
  C      -1.546910      1.512232      0.506949
  C      -2.259861      1.596210     -0.617568
  C      -2.163634      0.557278     -1.640108
  C      -1.628616     -0.628375     -1.357505
  C      -1.192533     -0.935984      0.055499
  C      -0.590385      0.351572      0.653158
  C       0.743627      0.776192      0.003998
  C       1.634110     -0.389147     -0.218935
  C       1.172888     -1.647752     -0.187904
  C      -0.195701     -2.106240      0.107949
  O       2.166602     -2.537002     -0.424912
  C       3.294252     -1.799447     -0.615208
  C       3.041416     -0.480054     -0.506304
  C       3.997274      0.648888     -0.644160
  C      -2.432081     -1.355051      0.853239
  H      -1.561230      3.561888      1.167814
  H      -2.486027      2.467956      2.185238
  H      -0.730282      2.453095      2.256596
  H      -2.902526      2.448985     -0.800017
  H      -2.542658      0.768543     -2.631585
  H      -1.561482     -1.406784     -2.107785
  H      -0.405912      0.162552      1.715635
  H       0.532210      1.276133     -0.944306
  H       1.221612      1.522324      0.643980
  H      -0.224312     -2.565080      1.100506
  H      -0.507185     -2.880947     -0.596831
  H       4.181056     -2.373409     -0.821375
  H       5.019067      0.288378     -0.756643
  H       3.763694      1.266745     -1.512746
  H       3.967082      1.298025      0.232150
  H      -2.833789     -2.289450      0.458103
  H      -3.213732     -0.599637      0.798035
  H      -2.176081     -1.515752      1.902827
34
Coordinates from ORCA-job ./output/furanoeudesma_1_3_diene/furanoeudesma_1_3_diene E -112.328364023640
  C      -1.566119      2.545994      1.579748
  C      -1.537296      1.522491      0.493803
  C      -2.269204      1.608100     -0.619264
  C      -2.195428      0.565209     -1.642105
  C      -1.658507     -0.621946     -1.367805
  C      -1.197210     -0.929208      0.039584
  C      -0.579390      0.359488      0.626237
  C       0.743659      0.777388     -0.051220
  C       1.638063     -0.390684     -0.241178
  C       1.175188     -1.648522     -0.186534
  C      -0.201710     -2.105986      0.071562
  O       2.175065     -2.542449     -0.365876
  C       3.309972     -1.811183     -0.542500
  C       3.050965     -0.488494     -0.478094
  C       4.001258      0.644944     -0.608410
  C      -2.424290     -1.343370      0.859602
  H      -1.816093      3.537106      1.198198
  H      -2.311153      2.293834      2.340217
  H      -0.600712      2.612026      2.084974
  H      -2.912544      2.461949     -0.793130
  H      -2.592757      0.778648     -2.625984
  H      -1.603993     -1.402229     -2.116819
  H      -0.373495      0.174305      1.686410
  H       0.516424      1.252217     -1.009734
  H       1.224470      1.541925      0.566276
  H      -0.245403     -2.601768      1.046524
  H      -0.500489     -2.856020     -0.666582
  H       4.186942     -2.412243     -0.712220
  H       5.010566      0.291536     -0.821234
  H       3.708128      1.323481     -1.412310
  H       4.036051      1.232300      0.312168
  H      -2.829559     -2.282888      0.477133
  H      -3.209631     -0.589759      0.810468
  H      -2.151770     -1.496193      1.907317
34
Coordinates from ORCA-job ./output/furanoeudesma_1_3_diene/furanoeudesma_1_3_diene E -112.329083654048
  C      -1.562968      2.536482      1.578901
  C      -1.530159      1.528397      0.483895
  C      -2.266400      1.619470     -0.625715
  C      -2.202940      0.574542     -1.647758
  C      -1.670794     -0.614762     -1.373414
  C      -1.199266     -0.922179      0.031422
  C      -0.571925      0.365531      0.611398
  C       0.744870      0.775687     -0.081791
  C       1.640277     -0.395799     -0.247542
  C       1.174647     -1.653925     -0.182243
  C      -0.209141     -2.104956      0.053550
  O       2.176670     -2.545871     -0.330101
  C       3.316171     -1.820923     -0.497181
  C       3.052842     -0.496142     -0.456323
  C       4.000109      0.640896     -0.587129
  C      -2.420827     -1.330337      0.862030
  H      -2.042118      3.463989      1.263595
  H      -2.116506      2.155751      2.442940
  H      -0.553818      2.772598      1.925030
  H      -2.907922      2.475050     -0.796051
  H      -2.606958      0.787954     -2.628929
  H      -1.625127     -1.396386     -2.121487
  H      -0.354037      0.183936      1.669658
  H       0.510758      1.229963     -1.048258
  H       1.229287      1.550851      0.519011
  H      -0.260961     -2.619978      1.017899
  H      -0.501448     -2.840259     -0.701909
  H       4.191560     -2.429063     -0.647922
  H       4.993477      0.296934     -0.876066
  H       3.660700      1.356290     -1.338543
  H       4.088833      1.182273      0.357899
  H      -2.831886     -2.269526      0.485021
  H      -3.204620     -0.574808      0.817492
  H      -2.140382     -1.481683      1.907841
34
Coordinates from ORCA-job ./output/furanoeudesma_1_3_diene/furanoeudesma_1_3_diene E -112.329745100579
  C      -1.572205      2.534414      1.576928
  C      -1.533001      1.524346      0.484553
  C      -2.253049      1.621726     -0.633561
  C      -2.177613      0.578889     -1.654498
  C      -1.654858     -0.611526     -1.369932
  C      -1.197408     -0.919659      0.037542
  C      -0.574924      0.365259      0.620477
  C       0.745265      0.772447     -0.063033
  C       1.637786     -0.401726     -0.230502
  C       1.171069     -1.662264     -0.178330
  C      -0.214641     -2.104020      0.068246
  O       2.171304     -2.546016     -0.347183
  C       3.309036     -1.823231     -0.516637
  C       3.045146     -0.498328     -0.454359
  C       3.995786      0.638476     -0.590992
  C      -2.425335     -1.325076      0.857961
  H      -2.119034      3.427944      1.280218
  H      -2.056492      2.118301      2.463303
  H      -0.563916      2.829517      1.874810
  H      -2.892307      2.477920     -0.807915
  H      -2.570583      0.788710     -2.640841
  H      -1.609187     -1.393110     -2.118299
  H      -0.363659      0.184492      1.678502
  H       0.519581      1.223813     -1.030921
  H       1.231782      1.543087      0.538663
  H      -0.261261     -2.605844      1.038290
  H      -0.514072     -2.846370     -0.675056
  H       4.196770     -2.407349     -0.683377
  H       4.983487      0.293963     -0.891997
  H       3.645258      1.351571     -1.336677
  H       4.097009      1.175264      0.353211
  H      -2.840676     -2.257834      0.474673
  H      -3.202580     -0.565089      0.812749
  H      -2.152479     -1.482700      1.903204
34
Coordinates from ORCA-job ./output/furanoeudesma_1_3_diene/furanoeudesma_1_3_diene E -112.330135886852
  C      -1.581155      2.535908      1.576383
  C      -1.539165      1.521224      0.486222
  C      -2.244669      1.618802     -0.640114
  C      -2.153424      0.578200     -1.659630
  C      -1.633824     -0.611053     -1.366667
  C      -1.195043     -0.919191      0.044403
  C      -0.582321      0.364276      0.632031
  C       0.744027      0.772416     -0.035089
  C       1.633262     -0.402368     -0.215695
  C       1.165853     -1.662679     -0.177727
  C      -0.216272     -2.101244      0.090433
  O       2.162209     -2.545982     -0.374932
  C       3.297525     -1.820917     -0.550062
  C       3.039678     -0.498170     -0.463633
  C       3.998790      0.632350     -0.599781
  C      -2.433000     -1.324534      0.848826
  H      -2.168690      3.405814      1.292824
  H      -2.018120      2.103442      2.477758
  H      -0.576936      2.868954      1.841449
  H      -2.885504      2.472973     -0.818665
  H      -2.532037      0.784587     -2.652197
  H      -1.581940     -1.392610     -2.115079
  H      -0.383025      0.182328      1.691236
  H       0.528149      1.231246     -1.000537
  H       1.229178      1.535816      0.574527
  H      -0.257175     -2.580726      1.071074
  H      -0.526756     -2.858079     -0.631617
  H       4.194474     -2.384797     -0.732470
  H       4.984639      0.280556     -0.893836
  H       3.655446      1.341251     -1.351440
  H       4.101583      1.173456      0.340103
  H      -2.846798     -2.253848      0.459195
  H      -3.206184     -0.562606      0.796286
  H      -2.172776     -1.484797      1.895643
34
Coordinates from ORCA-job ./output/furanoeudesma_1_3_diene/furanoeudesma_1_3_diene E -112.330284630606
  C      -1.589539      2.537758      1.576592
  C      -1.544280      1.520823      0.488087
  C      -2.239760      1.616600     -0.644628
  C      -2.136929      0.576740     -1.663461
  C      -1.618605     -0.612014     -1.365680
  C      -1.194238     -0.919769      0.049268
  C      -0.588335      0.364003      0.641927
  C       0.744132      0.773491     -0.012583
  C       1.630678     -0.401052     -0.206908
  C       1.162803     -1.660083     -0.177330
  C      -0.214908     -2.099433      0.108372
  O       2.155265     -2.546779     -0.396427
  C       3.288585     -1.819206     -0.577032
  C       3.037408     -0.497885     -0.473846
  C       4.002930      0.626347     -0.608169
  C      -2.440881     -1.325385      0.840921
  H      -2.210567      3.388416      1.306274
  H      -1.987408      2.095494      2.491138
  H      -0.589410      2.902820      1.813480
  H      -2.881204      2.469542     -0.827365
  H      -2.503928      0.781945     -2.660583
  H      -1.558506     -1.393134     -2.114105
  H      -0.399609      0.180966      1.703125
  H       0.535690      1.243573     -0.974526
  H       1.227970      1.529935      0.606543
  H      -0.251476     -2.560543      1.098046
  H      -0.532433     -2.869067     -0.596884
  H       4.188569     -2.374354     -0.772051
  H       4.989338      0.266834     -0.891304
  H       3.671333      1.332605     -1.367863
  H       4.102602      1.173936      0.328268
  H      -2.851345     -2.254258      0.446809
  H      -3.212821     -0.562778      0.780857
  H      -2.191126     -1.486092      1.890259
34
Coordinates from ORCA-job ./output/furanoeudesma_1_3_diene/furanoeudesma_1_3_diene E -112.330329535609
  C      -1.595477      2.539705      1.576836
  C      -1.546835      1.520672      0.490704
  C      -2.235928      1.615265     -0.646336
  C      -2.126543      0.575560     -1.665180
  C      -1.609298     -0.613419     -1.365415
  C      -1.194182     -0.921002      0.052564
  C      -0.591485      0.363165      0.649867
  C       0.745592      0.773834      0.003644
  C       1.630215     -0.400200     -0.201157
  C       1.161925     -1.658323     -0.176168
  C      -0.213026     -2.099261      0.119174
  O       2.151842     -2.547093     -0.409278
  C       3.283456     -1.818294     -0.594200
  C       3.036037     -0.497342     -0.481406
  C       4.003447      0.624081     -0.616985
  C      -2.446030     -1.327190      0.836315
  H      -2.219939      3.387984      1.305169
  H      -1.990695      2.100055      2.494068
  H      -0.596052      2.909884      1.810636
  H      -2.876663      2.468070     -0.832501
  H      -2.486963      0.781151     -2.664623
  H      -1.542991     -1.393995     -2.113846
  H      -0.410377      0.179285      1.712596
  H       0.542563      1.254805     -0.954577
  H       1.228905      1.523744      0.631774
  H      -0.246753     -2.549305      1.114394
  H      -0.532725     -2.876538     -0.577147
  H       4.182610     -2.371599     -0.799580
  H       4.993246      0.259349     -0.882813
  H       3.684340      1.322737     -1.389612
  H       4.092278      1.183484      0.313981
  H      -2.853826     -2.256224      0.438827
  H      -3.217888     -0.564394      0.772040
  H      -2.202782     -1.488653      1.887458
34
Coordinates from ORCA-job ./output/furanoeudesma_1_3_diene/furanoeudesma_1_3_diene E -112.330346205157
  C      -1.598810      2.539760      1.577078
  C      -1.547072      1.520963      0.491791
  C      -2.233234      1.615206     -0.647279
  C      -2.121337      0.575407     -1.666212
  C      -1.605059     -0.613950     -1.365789
  C      -1.194393     -0.921328      0.053892
  C      -0.592076      0.362846      0.653499
  C       0.747277      0.773810      0.010872
  C       1.630632     -0.400125     -0.198967
  C       1.161722     -1.657711     -0.174522
  C      -0.212360     -2.099428      0.123541
  O       2.150470     -2.547354     -0.413260
  C       3.281325     -1.818658     -0.600984
  C       3.035468     -0.497574     -0.484644
  C       4.002538      0.623441     -0.621608
  C      -2.448397     -1.327160      0.834336
  H      -2.232498      3.382568      1.308644
  H      -1.984699      2.098791      2.497993
  H      -0.600910      2.919433      1.803695
  H      -2.873365      2.468066     -0.835254
  H      -2.479167      0.781882     -2.666435
  H      -1.535687     -1.394481     -2.113886
  H      -0.414631      0.178761      1.717006
  H       0.547127      1.261614     -0.944774
  H       1.230788      1.519418      0.644510
  H      -0.245363     -2.545154      1.120960
  H      -0.531450     -2.879401     -0.570323
  H       4.177906     -2.374272     -0.812023
  H       4.995250      0.256719     -0.874696
  H       3.691430      1.316020     -1.403333
  H       4.081946      1.191403      0.305346
  H      -2.855140     -2.256338      0.435377
  H      -3.220206     -0.564123      0.768337
  H      -2.208027     -1.489053      1.886332
34
Coordinates from ORCA-job ./output/furanoeudesma_1_3_diene/furanoeudesma_1_3_diene E -112.330353985622
  C      -1.600712      2.539904      1.577611
  C      -1.546946      1.520388      0.493269
  C      -2.230762      1.614894     -0.647236
  C      -2.116828      0.575486     -1.666453
  C      -1.601554     -0.614179     -1.365609
  C      -1.194228     -0.921754      0.055106
  C      -0.592191      0.362009      0.656403
  C       0.748586      0.773338      0.016576
  C       1.630995     -0.400591     -0.196982
  C       1.161624     -1.658091     -0.173045
  C      -0.212177     -2.099929      0.126441
  O       2.149767     -2.547182     -0.415983
  C       3.280054     -1.818728     -0.605736
  C       3.034410     -0.497559     -0.487117
  C       4.000183      0.624196     -0.626601
  C      -2.449608     -1.327389      0.833091
  H      -2.230279      3.384733      1.305520
  H      -1.992676      2.101870      2.497346
  H      -0.602585      2.916761      1.808314
  H      -2.870324      2.467882     -0.836531
  H      -2.472771      0.782997     -2.667157
  H      -1.530240     -1.394628     -2.113545
  H      -0.417213      0.177566      1.720236
  H       0.550771      1.266304     -0.936908
  H       1.232369      1.515253      0.654540
  H      -0.244625     -2.543111      1.125047
  H      -0.530395     -2.881191     -0.566355
  H       4.174743     -2.375909     -0.820746
  H       4.996628      0.256719     -0.863615
  H       3.697161      1.307257     -1.419875
  H       4.067181      1.203068      0.294591
  H      -2.855826     -2.256334      0.432907
  H      -3.221189     -0.564140      0.766209
  H      -2.211346     -1.489913      1.885506
34
Coordinates from ORCA-job ./output/furanoeudesma_1_3_diene/furanoeudesma_1_3_diene E -112.330357072298
  C      -1.600613      2.539298      1.578054
  C      -1.546336      1.520259      0.493396
  C      -2.229938      1.615200     -0.647142
  C      -2.115970      0.576021     -1.666516
  C      -1.601085     -0.613739     -1.365684
  C      -1.194124     -0.921541      0.055085
  C      -0.591705      0.361859      0.656388
  C       0.749105      0.773092      0.016813
  C       1.631142     -0.401079     -0.197120
  C       1.161527     -1.658662     -0.172364
  C      -0.212644     -2.100083      0.126240
  O       2.149720     -2.547197     -0.415038
  C       3.280162     -1.819110     -0.605409
  C       3.034060     -0.497891     -0.487153
  C       3.998851      0.624764     -0.627559
  C      -2.449520     -1.326890      0.832929
  H      -2.234633      3.381434      1.308271
  H      -1.987452      2.099476      2.499071
  H      -0.603306      2.920226      1.805432
  H      -2.869520      2.468150     -0.836462
  H      -2.471781      0.784165     -2.667138
  H      -1.529762     -1.394320     -2.113478
  H      -0.416761      0.177374      1.720161
  H       0.551775      1.267240     -0.936042
  H       1.233221      1.513935      0.655717
  H      -0.245511     -2.543844      1.124498
  H      -0.530086     -2.880691     -0.567526
  H       4.173798     -2.377949     -0.820252
  H       4.997429      0.257761     -0.855813
  H       3.699610      1.302379     -1.426831
  H       4.058651      1.209149      0.290545
  H      -2.855922     -2.255673      0.432724
  H      -3.220948     -0.563565      0.766122
  H      -2.211437     -1.489552      1.885302
34
Coordinates from ORCA-job ./output/furanoeudesma_1_3_diene/furanoeudesma_1_3_diene E -112.330358193891
  C      -1.599907      2.539180      1.578430
  C      -1.546154      1.520072      0.493580
  C      -2.230012      1.615311     -0.646717
  C      -2.116198      0.576367     -1.666274
  C      -1.601302     -0.613376     -1.365578
  C      -1.193972     -0.921475      0.054955
  C      -0.591533      0.361742      0.656073
  C       0.749054      0.772952      0.016311
  C       1.631045     -0.401346     -0.197411
  C       1.161521     -1.659087     -0.172452
  C      -0.212904     -2.100166      0.125655
  O       2.149821     -2.547208     -0.414641
  C       3.280476     -1.819112     -0.604856
  C       3.033903     -0.497966     -0.486954
  C       3.998241      0.625177     -0.627727
  C      -2.449204     -1.326901      0.832996
  H      -2.233398      3.381588      1.308564
  H      -1.987040      2.099210      2.499154
  H      -0.602537      2.919464      1.806206
  H      -2.869736      2.468219     -0.835766
  H      -2.472134      0.784764     -2.666796
  H      -1.530311     -1.393938     -2.113453
  H      -0.416161      0.177136      1.719706
  H       0.551645      1.266844     -0.936589
  H       1.233294      1.513824      0.654978
  H      -0.246019     -2.544756      1.123470
  H      -0.530311     -2.880200     -0.568705
  H       4.174152     -2.378208     -0.818622
  H       4.998321      0.258526     -0.849488
  H       3.701734      1.298642     -1.431427
  H       4.052899      1.213515      0.288059
  H      -2.855776     -2.255555      0.432854
  H      -3.220582     -0.563587      0.766442
  H      -2.210918     -1.489657      1.885243
34
Coordinates from ORCA-job ./output/furanoeudesma_1_3_diene/furanoeudesma_1_3_diene E -112.330358559817
  C      -1.599147      2.539050      1.578700
  C      -1.546063      1.520098      0.493580
  C      -2.230416      1.615521     -0.646379
  C      -2.117103      0.576644     -1.666056
  C      -1.602084     -0.613097     -1.365600
  C      -1.193971     -0.921401      0.054640
  C      -0.591449      0.361786      0.655545
  C       0.748837      0.772955      0.015260
  C       1.630919     -0.401379     -0.197869
  C       1.161574     -1.659201     -0.172820
  C      -0.213028     -2.100147      0.124732
  O       2.150009     -2.547292     -0.414034
  C       3.280888     -1.819078     -0.603779
  C       3.034030     -0.497994     -0.486484
  C       3.998261      0.625286     -0.627248
  C      -2.448894     -1.326953      0.833201
  H      -2.233222      3.381205      1.309539
  H      -1.985194      2.098471      2.499572
  H      -0.601756      2.919607      1.805766
  H      -2.870262      2.468422     -0.835046
  H      -2.473433      0.785082     -2.666420
  H      -1.531581     -1.393613     -2.113590
  H      -0.415490      0.177111      1.719073
  H       0.551007      1.266010     -0.937975
  H       1.233103      1.514408      0.653176
  H      -0.246415     -2.545722      1.122088
  H      -0.530582     -2.879629     -0.570188
  H       4.174843     -2.378201     -0.816202
  H       4.999202      0.258745     -0.845179
  H       3.703478      1.296396     -1.433532
  H       4.049984      1.215891      0.287213
  H      -2.855595     -2.255615      0.433260
  H      -3.220333     -0.563695      0.766951
  H      -2.210119     -1.489674      1.885327
