34
Coordinates from ORCA-job ./output/furanoeudesma_1_3_diene/furanoeudesma_1_3_diene E -112.330358559817
  C          -1.59914691277403      2.53905025755035      1.57869968284577
  C          -1.54606322132430      1.52009842834065      0.49358006291555
  C          -2.23041641016432      1.61552109037126     -0.64637930584988
  C          -2.11710311643376      0.57664370289915     -1.66605601689292
  C          -1.60208364331362     -0.61309728077255     -1.36560004233411
  C          -1.19397050554744     -0.92140138943830      0.05464006422545
  C          -0.59144862812361      0.36178591295886      0.65554521785722
  C           0.74883693049835      0.77295539893828      0.01525970098231
  C           1.63091908419875     -0.40137919826312     -0.19786937117481
  C           1.16157367204855     -1.65920087720744     -0.17281992355093
  C          -0.21302788038579     -2.10014696314196      0.12473153501694
  O           2.15000928550420     -2.54729168397077     -0.41403422867029
  C           3.28088797591050     -1.81907766624462     -0.60377902462010
  C           3.03402982836040     -0.49799401998684     -0.48648386015431
  C           3.99826146177492      0.62528561414231     -0.62724830535413
  C          -2.44889414630976     -1.32695346826608      0.83320076461115
  H          -2.23322236632435      3.38120513380914      1.30953908408705
  H          -1.98519436079314      2.09847148295171      2.49957159791630
  H          -0.60175580593287      2.91960724342437      1.80576638380497
  H          -2.87026230358510      2.46842207731378     -0.83504640562662
  H          -2.47343294712811      0.78508188876890     -2.66642024030190
  H          -1.53158068267900     -1.39361327204480     -2.11358978134876
  H          -0.41549010272331      0.17711065601041      1.71907309758264
  H           0.55100694469471      1.26600983271929     -0.93797475188308
  H           1.23310294664035      1.51440796685398      0.65317571236247
  H          -0.24641505844529     -2.54572187789162      1.12208777513432
  H          -0.53058186130584     -2.87962894143753     -0.57018788671604
  H           4.17484299134197     -2.37820141061135     -0.81620163349895
  H           4.99920154379586      0.25874549312559     -0.84517941212250
  H           3.70347832555362      1.29639581305302     -1.43353238964471
  H           4.04998388917820      1.21589126919884      0.28721344485903
  H          -2.85559525117041     -2.25561532960522      0.43326025852941
  H          -3.22033307363366     -0.56369513545744      0.76695073218756
  H          -2.21011860140267     -1.48967374809021      1.88532746482591
