25
Coordinates from ORCA-job ./output/_z_cinnamyl_acetate/_z_cinnamyl_acetate E -101.970780666169
  C      -4.695464     -0.620879      1.259854
  C      -3.549088     -0.585523      0.307518
  O      -3.028772     -1.665896     -0.083080
  O      -3.094026      0.645498     -0.178503
  C      -2.005374      0.770985     -1.091351
  C      -0.703443      0.470103     -0.408833
  C       0.448474      0.516615     -1.088230
  C       1.776625      0.243627     -0.486004
  C       1.933221     -0.493380      0.706613
  C       3.209276     -0.732505      1.226923
  C       4.339639     -0.249925      0.564241
  C       4.197552      0.467720     -0.624897
  C       2.924668      0.709376     -1.150461
  H      -4.547511     -1.431223      2.004551
  H      -5.635888     -0.804144      0.699909
  H      -4.773191      0.348226      1.795792
  H      -1.981758      1.813982     -1.471888
  H      -2.155022      0.086630     -1.955060
  H      -0.719065      0.242329      0.648185
  H       0.418335      0.808019     -2.132624
  H       1.082987     -0.907577      1.229787
  H       3.321920     -1.299397      2.142142
  H       5.325830     -0.437601      0.968839
  H       5.074477      0.836590     -1.141136
  H       2.835597      1.268351     -2.074192
25
Coordinates from ORCA-job ./output/_z_cinnamyl_acetate/_z_cinnamyl_acetate E -101.988893055805
  C      -4.626015     -0.597174      1.221764
  C      -3.491070     -0.564025      0.266277
  O      -2.945639     -1.570018     -0.133302
  O      -3.107581      0.654653     -0.146514
  C      -2.023918      0.748035     -1.051695
  C      -0.710603      0.454393     -0.387570
  C       0.434988      0.493864     -1.059616
  C       1.759706      0.225763     -0.476250
  C       1.924664     -0.496657      0.704521
  C       3.190766     -0.722960      1.219163
  C       4.311611     -0.241647      0.559112
  C       4.160459      0.463215     -0.623250
  C       2.893529      0.690268     -1.138551
  H      -4.464388     -1.397562      1.935834
  H      -5.544700     -0.789306      0.670942
  H      -4.723491      0.351054      1.749126
  H      -2.031863      1.769850     -1.425629
  H      -2.189173      0.068901     -1.890283
  H      -0.726321      0.230220      0.669735
  H       0.409633      0.770755     -2.107960
  H       1.073606     -0.911130      1.224876
  H       3.305232     -1.286375      2.134644
  H       5.298788     -0.422953      0.961096
  H       5.030598      0.835427     -1.145932
  H       2.791180      1.243410     -2.062442
25
Coordinates from ORCA-job ./output/_z_cinnamyl_acetate/_z_cinnamyl_acetate E -101.990483024399
  C      -4.648159     -0.559619      1.200970
  C      -3.482299     -0.572986      0.273029
  O      -2.963412     -1.572182     -0.139472
  O      -3.105177      0.644409     -0.106499
  C      -2.024644      0.716615     -1.023388
  C      -0.703206      0.431884     -0.375443
  C       0.439761      0.472160     -1.043763
  C       1.768955      0.210155     -0.476602
  C       1.949885     -0.517171      0.693811
  C       3.215956     -0.725040      1.204958
  C       4.327334     -0.220146      0.551103
  C       4.161259      0.489793     -0.623200
  C       2.892437      0.697681     -1.132517
  H      -4.541021     -1.377554      1.903828
  H      -5.554504     -0.714229      0.621023
  H      -4.730489      0.383935      1.730179
  H      -2.051300      1.734551     -1.401564
  H      -2.203994      0.029600     -1.847991
  H      -0.718842      0.207947      0.682927
  H       0.416035      0.737683     -2.095930
  H       1.101974     -0.949644      1.205298
  H       3.338783     -1.296600      2.114617
  H       5.317796     -0.389148      0.950293
  H       5.022868      0.881627     -1.145939
  H       2.774002      1.256281     -2.051629
25
Coordinates from ORCA-job ./output/_z_cinnamyl_acetate/_z_cinnamyl_acetate E -101.990444274574
  C      -4.637226     -0.533052      1.220068
  C      -3.503526     -0.584361      0.246740
  O      -2.964765     -1.590401     -0.120081
  O      -3.108546      0.636005     -0.120075
  C      -2.026045      0.699152     -1.043232
  C      -0.705835      0.417939     -0.395272
  C       0.442234      0.465666     -1.051824
  C       1.769797      0.204880     -0.482321
  C       1.950346     -0.543774      0.674784
  C       3.213331     -0.745850      1.194118
  C       4.324619     -0.213242      0.562280
  C       4.159796      0.517638     -0.599523
  C       2.893585      0.719228     -1.116467
  H      -4.513846     -1.332687      1.942902
  H      -5.562433     -0.704322      0.674420
  H      -4.701946      0.428663      1.716753
  H      -2.058896      1.716215     -1.425208
  H      -2.210539      0.005873     -1.861197
  H      -0.730493      0.185717      0.661911
  H       0.429244      0.734444     -2.103912
  H       1.099994     -0.996211      1.165134
  H       3.333922     -1.335041      2.092911
  H       5.313219     -0.377562      0.967893
  H       5.020449      0.931225     -1.106975
  H       2.773558      1.293861     -2.025733
25
Coordinates from ORCA-job ./output/_z_cinnamyl_acetate/_z_cinnamyl_acetate E -101.990851595007
  C      -4.666557     -0.518040      1.218273
  C      -3.503079     -0.588897      0.279131
  O      -3.001719     -1.606338     -0.114997
  O      -3.096085      0.629683     -0.100453
  C      -2.020986      0.680819     -1.036929
  C      -0.697716      0.408671     -0.393465
  C       0.449418      0.458754     -1.051729
  C       1.779340      0.204109     -0.484484
  C       1.965605     -0.552154      0.668072
  C       3.230519     -0.749286      1.186065
  C       4.338207     -0.203690      0.557789
  C       4.167994      0.534508     -0.599467
  C       2.900051      0.730976     -1.115330
  H      -4.596960     -1.337799      1.926295
  H      -5.579974     -0.645562      0.640155
  H      -4.711811      0.435332      1.733427
  H      -2.058376      1.692914     -1.433041
  H      -2.213540     -0.025406     -1.842636
  H      -0.720158      0.178521      0.664450
  H       0.435579      0.725005     -2.104642
  H       1.116920     -1.013286      1.153437
  H       3.355202     -1.344010      2.080623
  H       5.327888     -0.363426      0.962489
  H       5.025423      0.957984     -1.104177
  H       2.774816      1.310620     -2.020760
25
Coordinates from ORCA-job ./output/_z_cinnamyl_acetate/_z_cinnamyl_acetate E -101.990909587632
  C      -4.659400     -0.506330      1.229623
  C      -3.504430     -0.585685      0.282665
  O      -3.012030     -1.605547     -0.113771
  O      -3.092354      0.627687     -0.106353
  C      -2.022020      0.665431     -1.048551
  C      -0.698309      0.400147     -0.403376
  C       0.450532      0.456928     -1.058682
  C       1.779330      0.205436     -0.486860
  C       1.963638     -0.561983      0.659115
  C       3.227334     -0.758520      1.181064
  C       4.335153     -0.201099      0.563164
  C       4.166919      0.548467     -0.587301
  C       2.900419      0.744334     -1.107457
  H      -4.596099     -1.329560      1.934195
  H      -5.577990     -0.620412      0.656496
  H      -4.688330      0.446398      1.747761
  H      -2.059858      1.671371     -1.459927
  H      -2.219394     -0.053421     -1.842300
  H      -0.722265      0.166961      0.653783
  H       0.439809      0.728267     -2.110297
  H       1.113977     -1.031240      1.134867
  H       3.350831     -1.361586      2.070161
  H       5.323706     -0.360037      0.970938
  H       5.024625      0.981383     -1.083453
  H       2.776205      1.332612     -2.007410
25
Coordinates from ORCA-job ./output/_z_cinnamyl_acetate/_z_cinnamyl_acetate E -101.991126100083
  C      -4.644237     -0.424543      1.276813
  C      -3.515928     -0.574006      0.311936
  O      -3.062611     -1.618472     -0.061480
  O      -3.072351      0.608286     -0.133558
  C      -2.023425      0.570031     -1.100163
  C      -0.696107      0.339737     -0.450285
  C       0.459289      0.444523     -1.089100
  C       1.784232      0.207396     -0.500783
  C       1.967907     -0.625719      0.599812
  C       3.225835     -0.813117      1.140400
  C       4.326823     -0.180640      0.585268
  C       4.159701      0.635385     -0.519788
  C       2.899652      0.822338     -1.059499
  H      -4.628269     -1.248191      1.982903
  H      -5.576414     -0.478951      0.716063
  H      -4.598395      0.532048      1.787574
  H      -2.063240      1.540888     -1.587731
  H      -2.244804     -0.208559     -1.829112
  H      -0.725306      0.077503      0.599806
  H       0.460726      0.751349     -2.130874
  H       1.119772     -1.148600      1.018965
  H       3.350055     -1.466759      1.992787
  H       5.310717     -0.331979      1.006952
  H       5.012897      1.127771     -0.965705
  H       2.773481      1.462280     -1.923107
25
Coordinates from ORCA-job ./output/_z_cinnamyl_acetate/_z_cinnamyl_acetate E -101.991515392409
  C      -4.624938     -0.287148      1.330272
  C      -3.531339     -0.552794      0.357311
  O      -3.130847     -1.636062      0.043139
  O      -3.042955      0.571753     -0.180276
  C      -2.023024      0.413371     -1.166515
  C      -0.690786      0.237103     -0.511607
  C       0.468465      0.427406     -1.124519
  C       1.789466      0.209883     -0.517838
  C       1.986881     -0.720837      0.500396
  C       3.237508     -0.894186      1.063877
  C       4.315272     -0.149566      0.611618
  C       4.135141      0.765020     -0.411731
  C       2.883258      0.938586     -0.975166
  H      -4.683465     -1.092179      2.054297
  H      -5.563574     -0.263111      0.777264
  H      -4.477275      0.674318      1.812999
  H      -2.065134      1.320262     -1.763582
  H      -2.275834     -0.443768     -1.789872
  H      -0.720761     -0.081467      0.522602
  H       0.479532      0.798456     -2.144949
  H       1.151961     -1.323498      0.829158
  H       3.374297     -1.622965      1.850778
  H       5.293539     -0.289463      1.050076
  H       4.971462      1.345769     -0.775749
  H       2.743149      1.655117     -1.773886
25
Coordinates from ORCA-job ./output/_z_cinnamyl_acetate/_z_cinnamyl_acetate E -101.991820761077
  C      -4.609750     -0.192164      1.354324
  C      -3.536644     -0.536650      0.387813
  O      -3.161755     -1.643723      0.129714
  O      -3.023998      0.543154     -0.213773
  C      -2.021950      0.305931     -1.202917
  C      -0.686145      0.167824     -0.546655
  C       0.470601      0.420031     -1.142380
  C       1.790143      0.212284     -0.527678
  C       2.003421     -0.779381      0.428199
  C       3.249402     -0.945186      1.004673
  C       4.305116     -0.131725      0.625609
  C       4.109567      0.844322     -0.336302
  C       2.862779      1.011069     -0.912899
  H      -4.712972     -0.971376      2.100151
  H      -5.545893     -0.129618      0.800049
  H      -4.405113      0.773907      1.806497
  H      -2.067178      1.163518     -1.867737
  H      -2.291728     -0.595299     -1.752141
  H      -0.710155     -0.192970      0.473558
  H       0.481815      0.838381     -2.144153
  H       1.182318     -1.430296      0.693515
  H       3.400047     -1.720913      1.742570
  H       5.280139     -0.265678      1.073155
  H       4.929770      1.479061     -0.642204
  H       2.708159      1.775497     -1.662894
25
Coordinates from ORCA-job ./output/_z_cinnamyl_acetate/_z_cinnamyl_acetate E -101.989940639672
  C      -4.558290     -0.110530      1.368343
  C      -3.468107     -0.544269      0.465822
  O      -2.949060     -1.644588      0.490416
  O      -3.030370      0.465588     -0.284347
  C      -2.023618      0.202471     -1.256386
  C      -0.671092      0.133651     -0.606684
  C       0.463819      0.497412     -1.181033
  C       1.778474      0.238114     -0.573148
  C       1.962650     -0.820883      0.299446
  C       3.178635     -1.010512      0.921016
  C       4.228572     -0.154056      0.659916
  C       4.062424      0.887269     -0.228297
  C       2.844048      1.080781     -0.845394
  H      -4.560489     -0.702156      2.268015
  H      -5.498591     -0.239717      0.844942
  H      -4.449252      0.943410      1.589015
  H      -2.091435      1.010669     -1.971172
  H      -2.261709     -0.727817     -1.751638
  H      -0.651348     -0.321392      0.373049
  H       0.454972      1.018701     -2.131669
  H       1.141954     -1.504562      0.461811
  H       3.314389     -1.843018      1.597705
  H       5.187482     -0.312200      1.134851
  H       4.886658      1.553184     -0.443863
  H       2.709284      1.904449     -1.532622
25
Coordinates from ORCA-job ./output/_z_cinnamyl_acetate/_z_cinnamyl_acetate E -101.992670129967
  C      -4.589746     -0.051193      1.369732
  C      -3.523422     -0.513062      0.447432
  O      -3.136270     -1.646051      0.342175
  O      -3.009695      0.489556     -0.270103
  C      -2.019137      0.154159     -1.242761
  C      -0.676417      0.065841     -0.591276
  C       0.464714      0.430429     -1.157694
  C       1.786477      0.218691     -0.545789
  C       2.026470     -0.857128      0.303943
  C       3.263136     -1.019444      0.899122
  C       4.281060     -0.118272      0.639736
  C       4.060394      0.941044     -0.221565
  C       2.822577      1.105864     -0.815120
  H      -4.710241     -0.742939      2.193057
  H      -5.521456     -0.013637      0.807870
  H      -4.360240      0.951302      1.717055
  H      -2.066109      0.941632     -1.987755
  H      -2.298909     -0.792767     -1.699266
  H      -0.674378     -0.383416      0.392912
  H       0.459294      0.942562     -2.114427
  H       1.232289     -1.571780      0.466257
  H       3.437905     -1.860983      1.555089
  H       5.251230     -0.250699      1.098566
  H       4.854755      1.643070     -0.434704
  H       2.645720      1.937224     -1.484393
25
Coordinates from ORCA-job ./output/_z_cinnamyl_acetate/_z_cinnamyl_acetate E -101.993167572716
  C      -4.575697      0.097339      1.367921
  C      -3.545160     -0.477659      0.469702
  O      -3.229911     -1.634820      0.416920
  O      -2.981167      0.450286     -0.307606
  C      -2.012274     -0.000665     -1.257725
  C      -0.668929     -0.061272     -0.612011
  C       0.453948      0.395843     -1.147884
  C       1.781377      0.213078     -0.538054
  C       2.082803     -0.924508      0.206344
  C       3.324954     -1.068996      0.795649
  C       4.286162     -0.085816      0.635363
  C       4.004601      1.038025     -0.120759
  C       2.761897      1.184579     -0.709351
  H      -4.784703     -0.568531      2.194895
  H      -5.487117      0.226591      0.786046
  H      -4.247890      1.075174      1.708280
  H      -2.050549      0.711343     -2.075764
  H      -2.322306     -0.981229     -1.613891
  H      -0.646148     -0.573219      0.341427
  H       0.427670      0.969903     -2.068359
  H       1.329411     -1.694924      0.289019
  H       3.548099     -1.957563      1.369740
  H       5.259923     -0.202041      1.090925
  H       4.754858      1.805030     -0.255195
  H       2.536147      2.064054     -1.297538
25
Coordinates from ORCA-job ./output/_z_cinnamyl_acetate/_z_cinnamyl_acetate E -101.993703233907
  C      -4.587863      0.144844      1.368431
  C      -3.588816     -0.457967      0.433824
  O      -3.393681     -1.628342      0.284020
  O      -2.970280      0.474316     -0.298823
  C      -2.005433     -0.006475     -1.244145
  C      -0.673573     -0.172115     -0.613172
  C       0.450036      0.314020     -1.120947
  C       1.780384      0.175234     -0.510409
  C       2.136726     -0.951460      0.228530
  C       3.395929     -1.056699      0.789861
  C       4.323753     -0.041427      0.617377
  C       3.986381      1.076184     -0.127772
  C       2.727241      1.178832     -0.692075
  H      -4.871401     -0.579755      2.124976
  H      -5.474231      0.412029      0.793376
  H      -4.188498      1.050228      1.818082
  H      -1.987683      0.739857     -2.035418
  H      -2.360137     -0.956608     -1.645181
  H      -0.666841     -0.719025      0.323846
  H       0.412476      0.896308     -2.036602
  H       1.419163     -1.752478      0.339409
  H       3.657566     -1.937512      1.359763
  H       5.306879     -0.123552      1.059403
  H       4.706180      1.870166     -0.271594
  H       2.465722      2.051398     -1.276667
25
Coordinates from ORCA-job ./output/_z_cinnamyl_acetate/_z_cinnamyl_acetate E -101.994528426624
  C      -4.576678      0.226385      1.350627
  C      -3.572076     -0.440540      0.469641
  O      -3.348568     -1.618598      0.442177
  O      -2.963065      0.435371     -0.336696
  C      -2.004525     -0.094095     -1.261627
  C      -0.668930     -0.227897     -0.626848
  C       0.435559      0.326499     -1.106391
  C       1.772863      0.179728     -0.511226
  C       2.154774     -0.979899      0.158396
  C       3.412451     -1.085260      0.722175
  C       4.312746     -0.037725      0.617709
  C       3.950161      1.113279     -0.060451
  C       2.692222      1.217011     -0.625887
  H      -4.860192     -0.439820      2.157861
  H      -5.458208      0.456130      0.753528
  H      -4.178823      1.161829      1.734406
  H      -1.987589      0.607971     -2.091192
  H      -2.361367     -1.062615     -1.610742
  H      -0.637309     -0.830354      0.273901
  H       0.374134      0.962126     -1.984030
  H       1.459311     -1.805463      0.214219
  H       3.696044     -1.992622      1.237338
  H       5.296785     -0.121800      1.057568
  H       4.649965      1.932588     -0.150952
  H       2.410315      2.117771     -1.155407
25
Coordinates from ORCA-job ./output/_z_cinnamyl_acetate/_z_cinnamyl_acetate E -101.994880878850
  C      -4.574858      0.254632      1.334193
  C      -3.552991     -0.427649      0.483934
  O      -3.289429     -1.599000      0.530301
  O      -2.967462      0.424844     -0.361958
  C      -2.005114     -0.118999     -1.273027
  C      -0.672079     -0.266685     -0.631537
  C       0.420717      0.336682     -1.077544
  C       1.764659      0.180427     -0.502348
  C       2.157134     -0.986091      0.145802
  C       3.417712     -1.092333      0.701720
  C       4.311476     -0.038563      0.610448
  C       3.938136      1.120267     -0.047331
  C       2.676586      1.224655     -0.603546
  H      -4.837175     -0.386658      2.167872
  H      -5.460888      0.444495      0.731111
  H      -4.201313      1.212293      1.685389
  H      -1.969459      0.580653     -2.103362
  H      -2.368379     -1.083206     -1.625772
  H      -0.629569     -0.920292      0.231572
  H       0.339349      1.014962     -1.920970
  H       1.472966     -1.821438      0.195827
  H       3.709794     -2.006823      1.199328
  H       5.299196     -0.124764      1.041595
  H       4.632824      1.944850     -0.128602
  H       2.388166      2.133742     -1.114998
25
Coordinates from ORCA-job ./output/_z_cinnamyl_acetate/_z_cinnamyl_acetate E -101.994994333600
  C      -4.565596      0.262044      1.331630
  C      -3.543473     -0.422723      0.482461
  O      -3.268314     -1.590964      0.544969
  O      -2.972074      0.424155     -0.378452
  C      -2.006874     -0.123306     -1.285110
  C      -0.677398     -0.294768     -0.640317
  C       0.410696      0.338001     -1.056836
  C       1.757158      0.179596     -0.491072
  C       2.153953     -0.984005      0.158830
  C       3.418111     -1.088705      0.706400
  C       4.312345     -0.036023      0.606093
  C       3.934560      1.120379     -0.053257
  C       2.669179      1.222724     -0.600904
  H      -4.823026     -0.379679      2.166585
  H      -5.453403      0.451123      0.731422
  H      -4.193630      1.219804      1.683913
  H      -1.954589      0.586053     -2.106036
  H      -2.379813     -1.077637     -1.653631
  H      -0.634338     -0.983451      0.194525
  H       0.319486      1.047556     -1.873271
  H       1.474070     -1.822099      0.220071
  H       3.712452     -2.001777      1.205312
  H       5.302911     -0.121427      1.030742
  H       4.628748      1.944545     -0.142487
  H       2.378858      2.130585     -1.113484
25
Coordinates from ORCA-job ./output/_z_cinnamyl_acetate/_z_cinnamyl_acetate E -101.995053990912
  C      -4.557169      0.251576      1.334502
  C      -3.538935     -0.426022      0.474881
  O      -3.259239     -1.593438      0.528186
  O      -2.977610      0.427210     -0.386827
  C      -2.008853     -0.113540     -1.295296
  C      -0.682952     -0.306271     -0.648236
  C       0.404360      0.343813     -1.040265
  C       1.751656      0.182194     -0.479564
  C       2.144463     -0.973326      0.187390
  C       3.411931     -1.079341      0.726593
  C       4.314538     -0.036134      0.601952
  C       3.940795      1.112018     -0.073719
  C       2.671830      1.215514     -0.612936
  H      -4.818251     -0.402133      2.159081
  H      -5.444408      0.455001      0.738196
  H      -4.178931      1.201010      1.702298
  H      -1.945907      0.611103     -2.101998
  H      -2.389056     -1.056857     -1.684129
  H      -0.644038     -1.020225      0.164848
  H       0.310368      1.077175     -1.835235
  H       1.460519     -1.806176      0.270308
  H       3.701684     -1.986389      1.238977
  H       5.307468     -0.122755      1.020714
  H       4.640525      1.929076     -0.182731
  H       2.385212      2.116918     -1.138895
25
Coordinates from ORCA-job ./output/_z_cinnamyl_acetate/_z_cinnamyl_acetate E -101.995082728082
  C      -4.551264      0.236866      1.338674
  C      -3.538741     -0.432835      0.466838
  O      -3.261078     -1.601184      0.502272
  O      -2.980059      0.429638     -0.387747
  C      -2.010100     -0.102521     -1.301498
  C      -0.686391     -0.308259     -0.654491
  C       0.401169      0.351584     -1.029544
  C       1.748609      0.186478     -0.470901
  C       2.134965     -0.960693      0.214930
  C       3.404765     -1.069320      0.747637
  C       4.316771     -0.037224      0.598440
  C       3.949537      1.102181     -0.094993
  C       2.677924      1.208318     -0.627793
  H      -4.825427     -0.431403      2.147199
  H      -5.433513      0.465383      0.743903
  H      -4.160238      1.172484      1.728081
  H      -1.943758      0.634003     -2.097192
  H      -2.394846     -1.038173     -1.704325
  H      -0.651597     -1.038799      0.143702
  H       0.307990      1.100798     -1.809689
  H       1.443740     -1.785079      0.318331
  H       3.688414     -1.969680      1.275024
  H       5.311339     -0.125883      1.012887
  H       4.655816      1.910742     -0.223413
  H       2.395972      2.102577     -1.168237
25
Coordinates from ORCA-job ./output/_z_cinnamyl_acetate/_z_cinnamyl_acetate E -101.995094931527
  C      -4.552014      0.219552      1.341128
  C      -3.540856     -0.440302      0.460795
  O      -3.263822     -1.609176      0.480433
  O      -2.981319      0.432381     -0.382777
  C      -2.010708     -0.088962     -1.302577
  C      -0.688042     -0.301399     -0.656203
  C       0.401044      0.359919     -1.024036
  C       1.748488      0.190507     -0.466144
  C       2.127435     -0.948978      0.237172
  C       3.398473     -1.060740      0.765703
  C       4.319469     -0.039745      0.595275
  C       3.959749      1.091547     -0.114685
  C       2.686518      1.200967     -0.643368
  H      -4.838560     -0.461792      2.134214
  H      -5.428055      0.469920      0.745908
  H      -4.152467      1.142872      1.750940
  H      -1.945045      0.656806     -2.089705
  H      -2.395833     -1.019931     -1.715806
  H      -0.657070     -1.038848      0.135678
  H       0.310739      1.115346     -1.798486
  H       1.428441     -1.764350      0.357646
  H       3.675924     -1.954795      1.306892
  H       5.315008     -0.130983      1.006818
  H       4.672655      1.891447     -0.259624
  H       2.409847      2.088738     -1.197095
25
Coordinates from ORCA-job ./output/_z_cinnamyl_acetate/_z_cinnamyl_acetate E -101.995102257877
  C      -4.552996      0.210094      1.342320
  C      -3.544467     -0.445739      0.456173
  O      -3.272187     -1.615927      0.464511
  O      -2.980179      0.432872     -0.377816
  C      -2.010871     -0.082565     -1.302415
  C      -0.688392     -0.298701     -0.657650
  C       0.401019      0.364888     -1.020066
  C       1.748714      0.192801     -0.462960
  C       2.123908     -0.941446      0.251193
  C       3.395894     -1.054484      0.776615
  C       4.321799     -0.040089      0.592667
  C       3.965854      1.085817     -0.127262
  C       2.691321      1.196545     -0.652951
  H      -4.856790     -0.482330      2.119101
  H      -5.419521      0.488161      0.745497
  H      -4.141242      1.118163      1.773872
  H      -1.946710      0.667590     -2.085504
  H      -2.396306     -1.011466     -1.720061
  H      -0.659207     -1.041949      0.128890
  H       0.311970      1.124861     -1.790127
  H       1.420334     -1.751076      0.382772
  H       3.670410     -1.944202      1.326385
  H       5.318129     -0.132463      1.002068
  H       4.682331      1.880576     -0.282501
  H       2.417184      2.080071     -1.214657
25
Coordinates from ORCA-job ./output/_z_cinnamyl_acetate/_z_cinnamyl_acetate E -101.995108468908
  C      -4.557116      0.196379      1.342647
  C      -3.548427     -0.452061      0.451182
  O      -3.277692     -1.622762      0.448638
  O      -2.980148      0.434553     -0.371228
  C      -2.011123     -0.071750     -1.300709
  C      -0.688820     -0.292006     -0.656953
  C       0.401921      0.370788     -1.016393
  C       1.749753      0.195118     -0.460440
  C       2.119721     -0.932202      0.267381
  C       3.392524     -1.046923      0.789873
  C       4.324765     -0.041257      0.589634
  C       3.974035      1.077609     -0.143355
  C       2.698267      1.189996     -0.666072
  H      -4.879192     -0.509876      2.099227
  H      -5.412040      0.505251      0.744411
  H      -4.134973      1.086416      1.801233
  H      -1.948260      0.684378     -2.078105
  H      -2.394949     -0.998130     -1.725313
  H      -0.662257     -1.038688      0.126440
  H       0.314639      1.132833     -1.784532
  H       1.410978     -1.734933      0.412457
  H       3.663140     -1.931077      1.350464
  H       5.321856     -0.135256      0.996874
  H       4.695255      1.865499     -0.311161
  H       2.428143      2.068101     -1.238103
25
Coordinates from ORCA-job ./output/_z_cinnamyl_acetate/_z_cinnamyl_acetate E -101.995113891107
  C      -4.558339      0.194082      1.342435
  C      -3.552044     -0.454741      0.448313
  O      -3.285838     -1.626488      0.441634
  O      -2.978943      0.433491     -0.368843
  C      -2.011220     -0.071503     -1.299976
  C      -0.688623     -0.292789     -0.657181
  C       0.401810      0.371693     -1.014314
  C       1.749975      0.195605     -0.459278
  C       2.119415     -0.928920      0.273087
  C       3.392793     -1.043082      0.794069
  C       4.326254     -0.039637      0.588086
  C       3.976002      1.076567     -0.149077
  C       2.699508      1.188343     -0.670301
  H      -4.901487     -0.521825      2.080371
  H      -5.399651      0.535757      0.742977
  H      -4.122731      1.064488      1.825784
  H      -1.948933      0.684918     -2.077129
  H      -2.394500     -0.997998     -1.724796
  H      -0.662210     -1.042336      0.123572
  H       0.313777      1.135471     -1.780647
  H       1.409848     -1.729964      0.423506
  H       3.663259     -1.924949      1.358307
  H       5.323766     -0.133393      0.994296
  H       4.698091      1.862705     -0.321184
  H       2.430019      2.064505     -1.245616
25
Coordinates from ORCA-job ./output/_z_cinnamyl_acetate/_z_cinnamyl_acetate E -101.995120798760
  C      -4.559704      0.192765      1.341918
  C      -3.554720     -0.456674      0.446507
  O      -3.289567     -1.628657      0.439738
  O      -2.979303      0.432150     -0.368400
  C      -2.011532     -0.072172     -1.299206
  C      -0.688634     -0.292671     -0.656109
  C       0.401922      0.371049     -1.014290
  C       1.750184      0.195624     -0.459689
  C       2.119369     -0.926793      0.275770
  C       3.392899     -1.039966      0.796636
  C       4.326820     -0.037624      0.587567
  C       3.976752      1.076599     -0.152772
  C       2.700132      1.187302     -0.673820
  H      -4.926597     -0.533309      2.058142
  H      -5.384457      0.570834      0.741662
  H      -4.110512      1.039898      1.853725
  H      -1.949346      0.683584     -2.077001
  H      -2.392995     -0.999540     -1.723648
  H      -0.662269     -1.041278      0.125625
  H       0.312977      1.133479     -1.781882
  H       1.410112     -1.727545      0.429332
  H       3.663447     -1.920214      1.363370
  H       5.324398     -0.130780      0.993731
  H       4.699243      1.861828     -0.327280
  H       2.431378      2.062114     -1.251531
25
Coordinates from ORCA-job ./output/_z_cinnamyl_acetate/_z_cinnamyl_acetate E -101.995128569291
  C      -4.557276      0.199490      1.341780
  C      -3.554771     -0.455537      0.447538
  O      -3.288807     -1.627280      0.448031
  O      -2.980429      0.428831     -0.373205
  C      -2.011933     -0.080350     -1.300223
  C      -0.688775     -0.296240     -0.655654
  C       0.401257      0.366409     -1.017576
  C       1.749354      0.194341     -0.462083
  C       2.121168     -0.929846      0.269019
  C       3.394153     -1.040643      0.792126
  C       4.324788     -0.034076      0.589499
  C       3.972014      1.082074     -0.146959
  C       2.696205      1.190330     -0.670173
  H      -4.946757     -0.531777      2.040615
  H      -5.365899      0.609318      0.740781
  H      -4.094604      1.025415      1.876091
  H      -1.949437      0.670606     -2.082624
  H      -2.391928     -1.010675     -1.719443
  H      -0.661079     -1.040471      0.130249
  H       0.310708      1.125041     -1.788785
  H       1.415273     -1.734529      0.417595
  H       3.666910     -1.922426      1.355412
  H       5.321860     -0.125362      0.997309
  H       4.692105      1.870586     -0.316542
  H       2.425900      2.066772     -1.244683
25
Coordinates from ORCA-job ./output/_z_cinnamyl_acetate/_z_cinnamyl_acetate E -101.995136853148
  C      -4.551452      0.210200      1.342464
  C      -3.551622     -0.452520      0.451028
  O      -3.280859     -1.622997      0.464479
  O      -2.983242      0.424234     -0.382299
  C      -2.012596     -0.092275     -1.302982
  C      -0.689422     -0.300537     -0.655681
  C       0.400159      0.359241     -1.024382
  C       1.747658      0.192181     -0.466323
  C       2.123440     -0.936243      0.255924
  C       3.395060     -1.043948      0.783562
  C       4.320140     -0.029972      0.593869
  C       3.963420      1.090430     -0.134569
  C       2.689365      1.195589     -0.662245
  H      -4.961019     -0.522380      2.028379
  H      -5.345547      0.645646      0.740437
  H      -4.076378      1.018229      1.893319
  H      -1.949797      0.651913     -2.091809
  H      -2.391089     -1.026561     -1.714710
  H      -0.660019     -1.036312      0.138074
  H       0.308718      1.111102     -1.802148
  H       1.422471     -1.747190      0.393539
  H       3.670853     -1.929269      1.339787
  H       5.316094     -0.118633      1.004966
  H       4.679448      1.884693     -0.294321
  H       2.416213      2.075378     -1.230263
25
Coordinates from ORCA-job ./output/_z_cinnamyl_acetate/_z_cinnamyl_acetate E -101.995141213385
  C      -4.545706      0.215907      1.343952
  C      -3.548329     -0.451017      0.453171
  O      -3.273601     -1.620438      0.473968
  O      -2.985660      0.421090     -0.388971
  C      -2.013134     -0.099171     -1.305948
  C      -0.690289     -0.302814     -0.656796
  C       0.399109      0.355236     -1.029164
  C       1.746045      0.191016     -0.468740
  C       2.123784     -0.939788      0.248815
  C       3.394383     -1.045793      0.779462
  C       4.316330     -0.027667      0.597200
  C       3.957721      1.095035     -0.126830
  C       2.684831      1.198543     -0.657555
  H      -4.966885     -0.516225      2.023285
  H      -5.331757      0.665304      0.741736
  H      -4.062513      1.013825      1.902619
  H      -1.950438      0.641762     -2.097848
  H      -2.391237     -1.035296     -1.713946
  H      -0.660213     -1.033495      0.141582
  H       0.308303      1.103052     -1.810895
  H       1.424983     -1.753722      0.379672
  H       3.671490     -1.933091      1.331867
  H       5.311523     -0.114764      1.010494
  H       4.671409      1.892528     -0.280915
  H       2.409851      2.079983     -1.222123
25
Coordinates from ORCA-job ./output/_z_cinnamyl_acetate/_z_cinnamyl_acetate E -101.995142514879
  C      -4.542674      0.216844      1.345101
  C      -3.546797     -0.451047      0.453511
  O      -3.270751     -1.620155      0.475806
  O      -2.986572      0.419880     -0.391367
  C      -2.013367     -0.100886     -1.307704
  C      -0.690790     -0.303616     -0.658078
  C       0.398490      0.354459     -1.030687
  C       1.745186      0.190758     -0.469106
  C       2.123143     -0.940359      0.248019
  C       3.393393     -1.045876      0.779488
  C       4.314719     -0.026933      0.598444
  C       3.955972      1.095986     -0.125053
  C       2.683364      1.199066     -0.656675
  H      -4.968435     -0.514885      2.021965
  H      -5.325756      0.671806      0.743198
  H      -4.055689      1.010721      1.906319
  H      -1.950911      0.639863     -2.099799
  H      -2.391843     -1.037043     -1.715350
  H      -0.660698     -1.033567      0.140928
  H       0.308639      1.101675     -1.813075
  H       1.424197     -1.754396      0.377422
  H       3.670531     -1.933407      1.331491
  H       5.309701     -0.113538      1.012356
  H       4.669161      1.894115     -0.278159
  H       2.407786      2.080535     -1.220899
25
Coordinates from ORCA-job ./output/_z_cinnamyl_acetate/_z_cinnamyl_acetate E -101.995142677509
  C      -4.542666      0.215441      1.345332
  C      -3.546616     -0.451474      0.453185
  O      -3.270221     -1.620556      0.474688
  O      -2.986678      0.420162     -0.391002
  C      -2.013376     -0.099612     -1.307866
  C      -0.690894     -0.303022     -0.658317
  C       0.398479      0.355142     -1.030445
  C       1.745161      0.190878     -0.468805
  C       2.122547     -0.939678      0.249566
  C       3.392825     -1.045388      0.780805
  C       4.314753     -0.027207      0.598318
  C       3.956602      1.095113     -0.126310
  C       2.683889      1.198393     -0.657741
  H      -4.967910     -0.516488      2.022283
  H      -5.326150      0.670016      0.743641
  H      -4.055896      1.009610      1.906332
  H      -1.950966      0.642060     -2.099095
  H      -2.391980     -1.035257     -1.716583
  H      -0.661042     -1.033563      0.140146
  H       0.309168      1.102759     -1.812484
  H       1.422821     -1.752873      0.380014
  H       3.669525     -1.932449      1.333782
  H       5.309799     -0.113974      1.012059
  H       4.670236      1.892631     -0.280504
  H       2.408589      2.079339     -1.222907
