! wB97X-3c OPT FREQ TightSCF
%pal
  nprocs 40
end
* xyz 0 1
C     -4.695464    -0.620879     1.259854
C     -3.549088    -0.585523     0.307518
O     -3.028772    -1.665896    -0.083080
O     -3.094026     0.645498    -0.178503
C     -2.005374     0.770985    -1.091351
C     -0.703443     0.470103    -0.408833
C      0.448474     0.516615    -1.088230
C      1.776625     0.243627    -0.486004
C      1.933221    -0.493380     0.706613
C      3.209276    -0.732505     1.226923
C      4.339639    -0.249925     0.564241
C      4.197552     0.467720    -0.624897
C      2.924668     0.709376    -1.150461
H     -4.547511    -1.431223     2.004551
H     -5.635888    -0.804144     0.699909
H     -4.773191     0.348226     1.795792
H     -1.981758     1.813982    -1.471888
H     -2.155022     0.086630    -1.955060
H     -0.719065     0.242329     0.648185
H      0.418335     0.808019    -2.132624
H      1.082987    -0.907577     1.229787
H      3.321920    -1.299397     2.142142
H      5.325830    -0.437601     0.968839
H      5.074477     0.836590    -1.141136
H      2.835597     1.268351    -2.074192
*
