! wB97X-3c OPT FREQ TightSCF
%pal
  nprocs 40
end
* xyz 0 1
C      4.780973     0.247021     0.072083
C      3.338501     0.640352     0.071154
C      2.382823    -0.265932    -0.166337
C      0.930891     0.042256    -0.170579
C      0.019387    -1.013792    -0.013588
C     -1.369502    -0.777621    -0.018691
C     -1.850644     0.528110    -0.193427
C     -0.939503     1.585524    -0.366726
C      0.435585     1.344990    -0.359849
O     -3.239554     0.733511    -0.192539
C     -3.867773     2.000517    -0.358924
O     -2.302599    -1.813914     0.146190
C     -1.963777    -3.184343     0.332740
H      4.962023    -0.531185     0.843483
H      5.066530    -0.147857    -0.925829
H      5.411529     1.131573     0.301096
H      3.095107     1.670009     0.293542
H      2.680619    -1.296647    -0.326461
H      0.398604    -2.018331     0.121003
H     -1.284552     2.599659    -0.514904
H      1.099891     2.181167    -0.526678
H     -4.968114     1.868096    -0.313640
H     -3.602157     2.431613    -1.347252
H     -3.558922     2.689792     0.455158
H     -1.361795    -3.306483     1.257895
H     -1.397916    -3.560898    -0.545450
H     -2.895655    -3.777184     0.435044
*
