27
Coordinates from ORCA-job ./output/_z_methyl_isoeugenol/_z_methyl_isoeugenol E -103.164929718695
  C           4.73917510029987      0.24353462686007      0.07846551831865
  C           3.28859957465304      0.58337737631869      0.08170759892747
  C           2.31438421968973     -0.27245084827136     -0.19885029530955
  C           0.87703703075335      0.03102646323867     -0.21741276138419
  C          -0.03426184835104     -1.00633385424442      0.00020597347499
  C          -1.39313491119655     -0.78179353501195      0.01411087981834
  C          -1.88225223052461      0.51798235675312     -0.20318523046177
  C          -0.98582560773678      1.54003449322051     -0.43383321013278
  C           0.38227860909193      1.29818449413820     -0.44569483746172
  O          -3.22406434362652      0.65943628758528     -0.17801496752193
  C          -3.75869736212233      1.93845148130630     -0.38978856179375
  O          -2.32522912047446     -1.73477514726851      0.22430261393277
  C          -1.89287972888212     -3.05130706775842      0.43976368721911
  H           4.90206157758820     -0.80248286113331     -0.17513333278172
  H           5.28078458423788      0.85589720059397     -0.64359809908791
  H           5.18757395340622      0.43292771245823      1.05435135773165
  H           3.03411539391961      1.60546331267999      0.34373785171536
  H           2.58090237064494     -1.30172172927603     -0.42009978073600
  H           0.34768198143450     -2.00132904631711      0.17143522842064
  H          -1.34227674333991      2.54091983665502     -0.62076151318100
  H           1.05701346420304      2.11460672252400     -0.65812879297151
  H          -4.83695328593222      1.83244116654803     -0.32345570434383
  H          -3.49631732904079      2.32027303656480     -1.37790883498472
  H          -3.41984204469764      2.64190403731169      0.37272012759544
  H          -1.27064943718987     -3.12413358068281      1.33335214689965
  H          -1.33960874233573     -3.43343567667557     -0.41978008804766
  H          -2.78961512447177     -3.64669425811707      0.58000702614601
