! wB97X-3c OPT FREQ TightSCF
%pal
  nprocs 40
end
* xyz 0 1
C     -3.609015     0.129015     0.032142
C     -2.113768     0.454156    -0.057074
C     -1.484096     0.548121     1.355678
C      0.039107     0.298350     1.366811
C      0.685565     0.665891     0.019713
C      0.114589    -0.207834    -1.138421
C     -1.374938    -0.586537    -0.916980
C      0.908714    -1.469874    -1.413545
C      2.141494    -1.699435    -0.937393
C      2.855818    -0.776827     0.009043
C      2.193308     0.571917     0.107944
C      2.921868     1.648962     0.442774
H     -4.128071     0.892255     0.650381
H     -4.063018     0.135931    -0.981721
H     -3.767159    -0.871927     0.488248
H     -2.018317     1.445099    -0.555794
H     -1.958001    -0.187459     2.042824
H     -1.691365     1.560519     1.766744
H      0.233298    -0.775718     1.584052
H      0.497594     0.894215     2.186553
H      0.412902     1.724333    -0.200520
H      0.172223     0.405945    -2.064961
H     -1.873786    -0.683107    -1.906794
H     -1.450878    -1.574998    -0.408299
H      0.485573    -2.198097    -2.100395
H      2.636163    -2.627712    -1.207461
H      3.902442    -0.665327    -0.349010
H      2.881063    -1.242986     1.016551
H      3.996789     1.575659     0.578154
H      2.453901     2.617472     0.590757
*
