30
Coordinates from ORCA-job ./output/_z_cadina_1_6_4_diene/_z_cadina_1_6_4_diene E -79.196926326645
  C      -3.609015      0.129015      0.032142
  C      -2.113768      0.454156     -0.057074
  C      -1.484096      0.548121      1.355678
  C       0.039107      0.298350      1.366811
  C       0.685565      0.665891      0.019713
  C       0.114589     -0.207834     -1.138421
  C      -1.374938     -0.586537     -0.916980
  C       0.908714     -1.469874     -1.413545
  C       2.141494     -1.699435     -0.937393
  C       2.855818     -0.776827      0.009043
  C       2.193308      0.571917      0.107944
  C       2.921868      1.648962      0.442774
  H      -4.128071      0.892255      0.650381
  H      -4.063018      0.135931     -0.981721
  H      -3.767159     -0.871927      0.488248
  H      -2.018317      1.445099     -0.555794
  H      -1.958001     -0.187459      2.042824
  H      -1.691365      1.560519      1.766744
  H       0.233298     -0.775718      1.584052
  H       0.497594      0.894215      2.186553
  H       0.412902      1.724333     -0.200520
  H       0.172223      0.405945     -2.064961
  H      -1.873786     -0.683107     -1.906794
  H      -1.450878     -1.574998     -0.408299
  H       0.485573     -2.198097     -2.100395
  H       2.636163     -2.627712     -1.207461
  H       3.902442     -0.665327     -0.349010
  H       2.881063     -1.242986      1.016551
  H       3.996789      1.575659      0.578154
  H       2.453901      2.617472      0.590757
30
Coordinates from ORCA-job ./output/_z_cadina_1_6_4_diene/_z_cadina_1_6_4_diene E -79.204964129285
  C      -3.585937      0.153275      0.020143
  C      -2.095718      0.453466     -0.051903
  C      -1.478361      0.514721      1.347449
  C       0.032671      0.246713      1.355028
  C       0.681404      0.650680      0.034079
  C       0.117669     -0.197822     -1.122280
  C      -1.359234     -0.571842     -0.901459
  C       0.912393     -1.442314     -1.395460
  C       2.118810     -1.689657     -0.900581
  C       2.835125     -0.767426      0.033883
  C       2.181529      0.580026      0.126094
  C       2.902653      1.667224      0.383168
  H      -4.096416      0.892797      0.638381
  H      -4.032353      0.178232     -0.974505
  H      -3.759261     -0.833849      0.450644
  H      -1.980024      1.432458     -0.528499
  H      -1.965256     -0.215048      1.998405
  H      -1.679387      1.499368      1.775111
  H       0.219510     -0.815367      1.534403
  H       0.495834      0.795414      2.174637
  H       0.409061      1.690426     -0.160200
  H       0.174439      0.416295     -2.027064
  H      -1.849671     -0.673487     -1.871374
  H      -1.427287     -1.543511     -0.402751
  H       0.476055     -2.169352     -2.071015
  H       2.608990     -2.620652     -1.160622
  H       3.866390     -0.658807     -0.303600
  H       2.863111     -1.222643      1.028460
  H       3.978438      1.612060      0.490320
  H       2.434821      2.638623      0.481110
30
Coordinates from ORCA-job ./output/_z_cadina_1_6_4_diene/_z_cadina_1_6_4_diene E -79.206376147309
  C      -3.576603      0.180903      0.006237
  C      -2.084142      0.454659     -0.045194
  C      -1.474857      0.478236      1.355933
  C       0.029037      0.191145      1.356579
  C       0.676409      0.642281      0.052070
  C       0.121843     -0.184983     -1.118133
  C      -1.349978     -0.563043     -0.898220
  C       0.923821     -1.419808     -1.390235
  C       2.106901     -1.685521     -0.860526
  C       2.819043     -0.760189      0.072005
  C       2.174875      0.592306      0.135806
  C       2.895347      1.692791      0.298666
  H      -4.083622      0.906672      0.640265
  H      -4.019647      0.235500     -0.986806
  H      -3.770865     -0.812404      0.409564
  H      -1.944969      1.437705     -0.503105
  H      -1.978302     -0.260288      1.981329
  H      -1.668522      1.449922      1.811260
  H       0.207260     -0.876850      1.491653
  H       0.504525      0.696426      2.194765
  H       0.395795      1.682657     -0.112612
  H       0.177561      0.440090     -2.013482
  H      -1.841313     -0.671522     -1.865052
  H      -1.409649     -1.535102     -0.402841
  H       0.481531     -2.146047     -2.063652
  H       2.596300     -2.621006     -1.104837
  H       3.856949     -0.659136     -0.240047
  H       2.834006     -1.204600      1.070683
  H       3.974088      1.651725      0.378818
  H       2.427177      2.667481      0.349110
30
Coordinates from ORCA-job ./output/_z_cadina_1_6_4_diene/_z_cadina_1_6_4_diene E -79.207022361571
  C      -3.569545      0.201113     -0.001705
  C      -2.075562      0.455758     -0.037819
  C      -1.470657      0.442903      1.367283
  C       0.028129      0.140333      1.359668
  C       0.672088      0.640356      0.070465
  C       0.127674     -0.166382     -1.119102
  C      -1.342012     -0.552386     -0.902444
  C       0.938127     -1.395938     -1.389627
  C       2.098198     -1.679563     -0.820693
  C       2.796705     -0.754888      0.122951
  C       2.170074      0.606642      0.136150
  C       2.894468      1.713080      0.201086
  H      -4.074935      0.910596      0.653088
  H      -4.012564      0.287315     -0.993240
  H      -3.779717     -0.801828      0.372254
  H      -1.918842      1.445972     -0.475918
  H      -1.988551     -0.305707      1.970593
  H      -1.657482      1.403540      1.849992
  H       0.198266     -0.934177      1.448639
  H       0.514941      0.601938      2.218081
  H       0.381423      1.683641     -0.061504
  H       0.182288      0.472325     -2.005676
  H      -1.835257     -0.664606     -1.868998
  H      -1.394443     -1.530027     -0.415065
  H       0.498686     -2.114824     -2.073595
  H       2.588360     -2.619037     -1.047319
  H       3.849007     -0.670937     -0.146512
  H       2.776316     -1.185119      1.129213
  H       3.975327      1.679231      0.254571
  H       2.429487      2.690675      0.205183
30
Coordinates from ORCA-job ./output/_z_cadina_1_6_4_diene/_z_cadina_1_6_4_diene E -79.207160195195
  C      -3.568684      0.198081     -0.001317
  C      -2.075341      0.455463     -0.034745
  C      -1.471230      0.434553      1.372229
  C       0.026855      0.129005      1.364564
  C       0.671739      0.644244      0.081242
  C       0.131663     -0.154396     -1.118264
  C      -1.338475     -0.546036     -0.906100
  C       0.945016     -1.383208     -1.392445
  C       2.098087     -1.674348     -0.811259
  C       2.784549     -0.757400      0.149866
  C       2.170147      0.609383      0.137850
  C       2.901494      1.713480      0.157598
  H      -4.076200      0.899219      0.661855
  H      -4.013143      0.293790     -0.992005
  H      -3.778198     -0.809677      0.362058
  H      -1.918895      1.449265     -0.465875
  H      -1.992793     -0.316039      1.971151
  H      -1.656488      1.393628      1.859994
  H       0.193638     -0.947543      1.439218
  H       0.514084      0.576921      2.230968
  H       0.378911      1.689170     -0.038876
  H       0.185711      0.491884     -1.999716
  H      -1.831241     -0.656577     -1.873868
  H      -1.389504     -1.527809     -0.425492
  H       0.512792     -2.092191     -2.091246
  H       2.590612     -2.612691     -1.037667
  H       3.845488     -0.686225     -0.091380
  H       2.734326     -1.184102      1.157133
  H       3.983004      1.676465      0.194467
  H       2.442075      2.693693      0.140064
30
Coordinates from ORCA-job ./output/_z_cadina_1_6_4_diene/_z_cadina_1_6_4_diene E -79.207213206755
  C      -3.569127      0.188776      0.000755
  C      -2.076951      0.454526     -0.033490
  C      -1.473042      0.436730      1.374306
  C       0.025116      0.130461      1.369345
  C       0.672473      0.648372      0.088569
  C       0.134164     -0.147084     -1.115549
  C      -1.336150     -0.543087     -0.906904
  C       0.948627     -1.374788     -1.396475
  C       2.100675     -1.669522     -0.814039
  C       2.777452     -0.762191      0.164243
  C       2.171248      0.607580      0.139971
  C       2.908917      1.708136      0.137385
  H      -4.079500      0.886325      0.665923
  H      -4.014596      0.284632     -0.989743
  H      -3.773382     -0.820971      0.362103
  H      -1.925652      1.449645     -0.463823
  H      -1.995117     -0.311474      1.976023
  H      -1.657393      1.398358      1.857878
  H       0.189211     -0.946877      1.441412
  H       0.509470      0.575565      2.239110
  H       0.380109      1.694011     -0.028776
  H       0.187259      0.504074     -1.993425
  H      -1.827666     -0.651512     -1.875830
  H      -1.387030     -1.526900     -0.430023
  H       0.523013     -2.074478     -2.108353
  H       2.596493     -2.604248     -1.048152
  H       3.843562     -0.700547     -0.056866
  H       2.702911     -1.189931      1.169529
  H       3.990481      1.665932      0.165262
  H       2.454426      2.690491      0.109635
30
Coordinates from ORCA-job ./output/_z_cadina_1_6_4_diene/_z_cadina_1_6_4_diene E -79.207225717897
  C      -3.569459      0.183168      0.002068
  C      -2.077889      0.453697     -0.033439
  C      -1.473904      0.441364      1.374358
  C       0.024087      0.133682      1.371285
  C       0.673060      0.649625      0.091128
  C       0.134603     -0.145540     -1.113410
  C      -1.335187     -0.543536     -0.905531
  C       0.949739     -1.371426     -1.399482
  C       2.102712     -1.667098     -0.819388
  C       2.775570     -0.765066      0.167224
  C       2.171787      0.605391      0.141245
  C       2.911743      1.704490      0.135042
  H      -4.081211      0.881212      0.665497
  H      -4.014966      0.275632     -0.988650
  H      -3.770236     -0.826212      0.365844
  H      -1.930074      1.448332     -0.465925
  H      -1.995871     -0.303156      1.980400
  H      -1.656846      1.405972      1.852317
  H       0.186081     -0.943826      1.444916
  H       0.506545      0.579793      2.241457
  H       0.381540      1.695188     -0.027761
  H       0.186712      0.507389     -1.989974
  H      -1.825926     -0.651535     -1.874794
  H      -1.385687     -1.527163     -0.428522
  H       0.526745     -2.067010     -2.116812
  H       2.600716     -2.598831     -1.060635
  H       3.843246     -0.706793     -0.045822
  H       2.690258     -1.195109      1.170467
  H       3.993190      1.659824      0.161575
  H       2.458921      2.687544      0.105323
30
Coordinates from ORCA-job ./output/_z_cadina_1_6_4_diene/_z_cadina_1_6_4_diene E -79.207228701001
  C      -3.569593      0.180968      0.002737
  C      -2.078222      0.453120     -0.033612
  C      -1.473932      0.444614      1.373994
  C       0.023668      0.134972      1.371559
  C       0.673378      0.649553      0.091586
  C       0.134305     -0.145660     -1.112616
  C      -1.334794     -0.544760     -0.904096
  C       0.950319     -1.369867     -1.401629
  C       2.103700     -1.666005     -0.822773
  C       2.775137     -0.766257      0.167217
  C       2.171922      0.604308      0.141892
  C       2.912301      1.703078      0.136765
  H      -4.081777      0.880291      0.664319
  H      -4.015003      0.270621     -0.988182
  H      -3.768916     -0.827653      0.369033
  H      -1.931927      1.447003     -0.468174
  H      -1.996174     -0.296904      1.983258
  H      -1.655208      1.411267      1.848243
  H       0.184014     -0.942638      1.446037
  H       0.505710      0.581379      2.241696
  H       0.382433      1.695009     -0.028598
  H       0.185389      0.507878     -1.988803
  H      -1.825364     -0.653541     -1.873241
  H      -1.384370     -1.527678     -0.425820
  H       0.528097     -2.064112     -2.120720
  H       2.602747     -2.596127     -1.067977
  H       3.843302     -0.708760     -0.042490
  H       2.685462     -1.197991      1.169260
  H       3.993678      1.657675      0.164101
  H       2.459719      2.686219      0.107035
30
Coordinates from ORCA-job ./output/_z_cadina_1_6_4_diene/_z_cadina_1_6_4_diene E -79.207229523620
  C      -3.569714      0.179972      0.003155
  C      -2.078439      0.452751     -0.033805
  C      -1.473768      0.446838      1.373643
  C       0.023424      0.135420      1.371354
  C       0.673553      0.649334      0.091405
  C       0.133903     -0.145858     -1.112590
  C      -1.334636     -0.545821     -0.903084
  C       0.950714     -1.368971     -1.403182
  C       2.104170     -1.665476     -0.824722
  C       2.775008     -0.766827      0.166745
  C       2.172022      0.603846      0.142350
  C       2.912453      1.702554      0.138785
  H      -4.082097      0.880321      0.663444
  H      -4.015161      0.267626     -0.987893
  H      -3.768374     -0.828065      0.371335
  H      -1.932880      1.446036     -0.469961
  H      -1.996488     -0.292459      1.985150
  H      -1.653553      1.414877      1.845576
  H       0.182533     -0.942340      1.445963
  H       0.505707      0.581479      2.241519
  H       0.383060      1.694839     -0.029336
  H       0.183964      0.507953     -1.988677
  H      -1.825314     -0.655848     -1.872002
  H      -1.383170     -1.528146     -0.423563
  H       0.528803     -2.062691     -2.123007
  H       2.603640     -2.594846     -1.071836
  H       3.843420     -0.709354     -0.041357
  H       2.683560     -1.199724      1.168132
  H       3.993784      1.656894      0.167061
  H       2.459876      2.685688      0.109400
