26
Coordinates from ORCA-job ./output/beta_phellandrene/beta_phellandrene E -66.604950191083
  C          -1.23967539865984     -1.70302275555017     -0.34641358647811
  C          -1.66390183074931     -0.54307136171813      0.53906745571909
  C          -2.93470428112201      0.09511695342299     -0.00210381655578
  C          -0.56163656404113      0.50817198968932      0.77284723843933
  C           0.68311760200625     -0.02881208548933      1.48350846187472
  C           1.78269450430346     -0.50779433817399      0.54639281926779
  C           2.14748924654030      0.54388099560778     -0.45649332970080
  C           3.39406300626812      0.75807619753256     -0.86483659553889
  C           1.02466210151966      1.31223813217538     -0.99114777602458
  C          -0.19519795373187      1.27149658951519     -0.46386564086036
  H          -0.86336281178823     -1.34786032161652     -1.30661011589444
  H          -0.46549663023718     -2.30970338378707      0.11875801455689
  H          -2.08845175377470     -2.35817446935896     -0.54342685489533
  H          -1.89923853239319     -0.94777408512245      1.52848402751396
  H          -3.23240662526732      0.96219954711043      0.58865078564810
  H          -2.81016995719101      0.41846144231983     -1.03575312923218
  H          -3.75830075893422     -0.61824690627014      0.01641341186103
  H          -1.01707502682236      1.23937363236774      1.44914678560596
  H           0.39967894626192     -0.83006612461068      2.16825448026689
  H           1.09571560234639      0.77259594971899      2.09957813201714
  H           2.66231552457841     -0.80174724771886      1.11841225569521
  H           1.45413116177854     -1.39123113576167     -0.00105769930322
  H           3.61794861340403      1.50332069034479     -1.61727755603312
  H           4.22548948342156      0.19515735546173     -0.46121897587660
  H           1.21857316471385      1.94168547616984     -1.85142317205417
  H          -0.97626083243013      1.86573226374138     -0.92245962001853
