42
Coordinates from ORCA-job ./output/himachalol/himachalol E -117.210133105815
  C       4.011868     -0.946959     -0.524869
  C       2.564813     -0.827891     -0.130409
  C       1.767826      0.038527     -0.779744
  C       0.292647      0.249830     -0.440964
  C      -0.339568     -0.893242      0.454095
  C       0.590954     -2.129228      0.578710
  C       2.002658     -1.696029      0.957988
  C      -1.807799     -1.314514      0.048108
  C      -2.842643     -0.191629      0.362084
  C      -2.508223      1.219494     -0.152031
  C      -1.401362      1.896813      0.676497
  C       0.044950      1.705836      0.121082
  C       0.269888      2.747415     -1.007234
  C       1.034426      2.033956      1.268997
  C      -1.927731     -1.741594     -1.441601
  O      -2.154204     -2.430791      0.842187
  H       4.543565     -1.686386      0.109899
  H       4.087027     -1.271465     -1.584243
  H       4.513979      0.036766     -0.408174
  H       2.194766      0.630184     -1.584554
  H      -0.185253      0.204582     -1.433901
  H      -0.408285     -0.512711      1.495881
  H       0.220694     -2.814660      1.371527
  H       0.632937     -2.698569     -0.373402
  H       2.632834     -2.599516      1.104729
  H       1.984440     -1.126730      1.912441
  H      -3.005185     -0.143567      1.461871
  H      -3.826624     -0.482863     -0.068548
  H      -3.430559      1.831185     -0.041471
  H      -2.276829      1.216781     -1.235632
  H      -1.631038      2.984210      0.738063
  H      -1.464214      1.548986      1.731318
  H       1.317227      2.732723     -1.372425
  H       0.070722      3.778180     -0.642013
  H      -0.401141      2.553418     -1.870269
  H       0.966922      1.282661      2.082989
  H       2.084428      2.059564      0.907759
  H       0.809521      3.032020      1.704079
  H      -1.130039     -2.454817     -1.727064
  H      -1.904511     -0.882699     -2.139461
  H      -2.899997     -2.249461     -1.617850
  H      -3.093888     -2.687812      0.645554
42
Coordinates from ORCA-job ./output/himachalol/himachalol E -117.225394627059
  C       3.976830     -0.929003     -0.528317
  C       2.526680     -0.811689     -0.134679
  C       1.718811      0.035985     -0.765056
  C       0.259506      0.245110     -0.428736
  C      -0.349357     -0.867994      0.466525
  C       0.554553     -2.096830      0.582505
  C       1.970828     -1.686924      0.944056
  C      -1.778960     -1.281804      0.050324
  C      -2.812584     -0.188527      0.348166
  C      -2.495214      1.216653     -0.147223
  C      -1.385964      1.883252      0.663410
  C       0.037450      1.682979      0.120712
  C       0.271277      2.693625     -1.006586
  C       1.014570      1.992070      1.257322
  C      -1.863838     -1.693972     -1.420934
  O      -2.093930     -2.406682      0.852798
  H       4.501810     -1.653274      0.093765
  H       4.064565     -1.249509     -1.566735
  H       4.480983      0.031994     -0.420376
  H       2.127860      0.634262     -1.570614
  H      -0.239463      0.204301     -1.401126
  H      -0.430012     -0.483281      1.488618
  H       0.167907     -2.766394      1.349731
  H       0.581594     -2.651559     -0.357753
  H       2.589018     -2.577519      1.072446
  H       1.973744     -1.148980      1.898131
  H      -2.964919     -0.151785      1.429772
  H      -3.773719     -0.499892     -0.078817
  H      -3.404923      1.813323     -0.040107
  H      -2.265100      1.216658     -1.213998
  H      -1.586198      2.956686      0.722013
  H      -1.445021      1.534984      1.698025
  H       1.297216      2.654929     -1.374125
  H       0.094910      3.710567     -0.652373
  H      -0.398963      2.511183     -1.849186
  H       0.934358      1.255673      2.058835
  H       2.046917      1.999892      0.907747
  H       0.800302      2.974640      1.683248
  H      -1.065026     -2.384089     -1.688737
  H      -1.832847     -0.843073     -2.100117
  H      -2.813289     -2.201661     -1.605945
  H      -2.992361     -2.674328      0.663387
42
Coordinates from ORCA-job ./output/himachalol/himachalol E -117.226638348562
  C       3.983185     -0.903420     -0.523110
  C       2.527610     -0.807825     -0.145596
  C       1.708024      0.029365     -0.764891
  C       0.255516      0.240548     -0.424927
  C      -0.345809     -0.866382      0.470042
  C       0.555199     -2.093636      0.580867
  C       1.980470     -1.703086      0.921397
  C      -1.777433     -1.272052      0.047133
  C      -2.809244     -0.182148      0.330241
  C      -2.498509      1.225468     -0.151407
  C      -1.383128      1.884956      0.650437
  C       0.040910      1.679269      0.123332
  C       0.285109      2.681780     -1.003500
  C       1.003709      1.986806      1.265989
  C      -1.869942     -1.710048     -1.410328
  O      -2.107350     -2.384700      0.871362
  H       4.510952     -1.618298      0.103505
  H       4.094201     -1.223301     -1.557329
  H       4.478887      0.059538     -0.414748
  H       2.107842      0.643265     -1.563778
  H      -0.258126      0.208972     -1.385917
  H      -0.430325     -0.478355      1.487927
  H       0.160302     -2.760657      1.340072
  H       0.569721     -2.645784     -0.358316
  H       2.596826     -2.596075      1.020915
  H       2.009109     -1.196324      1.890127
  H      -2.959387     -0.149917      1.410365
  H      -3.762810     -0.503703     -0.099861
  H      -3.407084      1.817304     -0.039430
  H      -2.272989      1.234154     -1.217767
  H      -1.564967      2.959217      0.706501
  H      -1.447264      1.534473      1.681491
  H       1.303314      2.624433     -1.380886
  H       0.129481      3.699132     -0.646693
  H      -0.394309      2.515631     -1.839192
  H       0.916248      1.252352      2.065310
  H       2.037582      1.994549      0.929787
  H       0.780813      2.965705      1.690477
  H      -1.081660     -2.411496     -1.668364
  H      -1.830593     -0.874560     -2.102474
  H      -2.824731     -2.209400     -1.576900
  H      -3.009352     -2.645751      0.688136
42
Coordinates from ORCA-job ./output/himachalol/himachalol E -117.227006967903
  C       3.990159     -0.888222     -0.493314
  C       2.528382     -0.810902     -0.144265
  C       1.704527      0.020000     -0.764315
  C       0.253600      0.234873     -0.430726
  C      -0.344996     -0.867231      0.470394
  C       0.550744     -2.096370      0.580262
  C       1.981630     -1.723897      0.909257
  C      -1.775008     -1.267655      0.042337
  C      -2.808257     -0.180317      0.329810
  C      -2.508752      1.233607     -0.136942
  C      -1.379757      1.884332      0.649719
  C       0.043054      1.677927      0.115407
  C       0.276184      2.677506     -1.016420
  C       1.011680      1.990724      1.249866
  C      -1.868756     -1.706379     -1.413405
  O      -2.105853     -2.385410      0.869209
  H       4.516195     -1.589258      0.151347
  H       4.131211     -1.218432     -1.521728
  H       4.475638      0.081197     -0.389509
  H       2.104435      0.644707     -1.555297
  H      -0.270118      0.209078     -1.386717
  H      -0.435109     -0.475144      1.486428
  H       0.144483     -2.763429      1.334774
  H       0.557530     -2.647334     -0.360860
  H       2.593920     -2.623320      0.982261
  H       2.032192     -1.244995      1.892463
  H      -2.950575     -0.158077      1.412090
  H      -3.759844     -0.508615     -0.099233
  H      -3.417371      1.821408     -0.003498
  H      -2.302133      1.258254     -1.208547
  H      -1.548784      2.961036      0.709408
  H      -1.436705      1.528275      1.680308
  H       1.285245      2.612295     -1.416366
  H       0.135867      3.696495     -0.655500
  H      -0.421486      2.519774     -1.839411
  H       0.933793      1.257335      2.052033
  H       2.044370      2.001950      0.907721
  H       0.784892      2.968779      1.675468
  H      -1.090300     -2.419318     -1.671673
  H      -1.814123     -0.870249     -2.105453
  H      -2.831521     -2.190864     -1.577997
  H      -3.010285     -2.644138      0.690612
42
Coordinates from ORCA-job ./output/himachalol/himachalol E -117.227106017086
  C       3.995789     -0.873516     -0.477279
  C       2.530694     -0.809390     -0.146186
  C       1.705998      0.022513     -0.764645
  C       0.254149      0.234734     -0.435522
  C      -0.343791     -0.869827      0.466864
  C       0.551076     -2.100561      0.569547
  C       1.984306     -1.737717      0.894076
  C      -1.777411     -1.268824      0.044244
  C      -2.808113     -0.177059      0.329964
  C      -2.508699      1.235929     -0.138731
  C      -1.379291      1.888220      0.644543
  C       0.044906      1.679044      0.112527
  C       0.280001      2.679921     -1.018517
  C       1.011219      1.989208      1.249879
  C      -1.880624     -1.719445     -1.407802
  O      -2.111916     -2.380665      0.880409
  H       4.522439     -1.558211      0.184980
  H       4.155636     -1.218936     -1.498703
  H       4.470349      0.102949     -0.384968
  H       2.108682      0.658609     -1.545487
  H      -0.271790      0.214117     -1.390404
  H      -0.430916     -0.479215      1.484096
  H       0.142816     -2.771608      1.319968
  H       0.552801     -2.646700     -0.375243
  H       2.593783     -2.641491      0.944498
  H       2.048913     -1.279394      1.886995
  H      -2.948192     -0.153143      1.413024
  H      -3.760249     -0.506122     -0.097983
  H      -3.417520      1.823588     -0.002077
  H      -2.306146      1.261660     -1.211936
  H      -1.544779      2.966277      0.698233
  H      -1.437253      1.536361      1.677103
  H       1.286187      2.608909     -1.426323
  H       0.149443      3.699348     -0.653926
  H      -0.423818      2.530100     -1.838290
  H       0.934595      1.251734      2.049202
  H       2.044804      2.004124      0.909578
  H       0.781160      2.964961      1.680092
  H      -1.109106     -2.440967     -1.664575
  H      -1.821968     -0.889057     -2.107076
  H      -2.848534     -2.197576     -1.563046
  H      -3.019627     -2.632885      0.708897
42
Coordinates from ORCA-job ./output/himachalol/himachalol E -117.227235577835
  C       4.002298     -0.861699     -0.449275
  C       2.533147     -0.810258     -0.141222
  C       1.710383      0.023591     -0.760772
  C       0.255724      0.232128     -0.441246
  C      -0.342978     -0.872797      0.462664
  C       0.549273     -2.106593      0.557489
  C       1.984506     -1.756508      0.880761
  C      -1.778741     -1.269346      0.044909
  C      -2.807364     -0.175879      0.337029
  C      -2.510164      1.236965     -0.132131
  C      -1.377193      1.889225      0.644886
  C       0.045686      1.678591      0.106321
  C       0.271695      2.679229     -1.027448
  C       1.016632      1.993031      1.239128
  C      -1.889492     -1.717748     -1.407717
  O      -2.113558     -2.382816      0.880192
  H       4.530848     -1.505667      0.251882
  H       4.185792     -1.252402     -1.450978
  H       4.459579      0.126301     -0.398246
  H       2.119791      0.671984     -1.527888
  H      -0.269994      0.213421     -1.396845
  H      -0.426851     -0.483405      1.481047
  H       0.138048     -2.782632      1.302321
  H       0.546427     -2.645624     -0.391957
  H       2.588703     -2.665896      0.902697
  H       2.065185     -1.323303      1.884228
  H      -2.941650     -0.153394      1.421126
  H      -3.761685     -0.504420     -0.087209
  H      -3.418483      1.824026      0.014498
  H      -2.317514      1.266635     -1.207482
  H      -1.540416      2.968155      0.694982
  H      -1.430630      1.540436      1.679147
  H       1.272149      2.605940     -1.449721
  H       0.149542      3.699261     -0.660754
  H      -0.442974      2.532269     -1.838797
  H       0.951888      1.251674      2.036413
  H       2.048348      2.017704      0.892842
  H       0.781304      2.965516      1.674714
  H      -1.126950     -2.447971     -1.667480
  H      -1.821694     -0.886471     -2.105968
  H      -2.863597     -2.184303     -1.561374
  H      -3.025024     -2.626953      0.715234
42
Coordinates from ORCA-job ./output/himachalol/himachalol E -117.227778756162
  C       4.020992     -0.826950     -0.351481
  C       2.541496     -0.810914     -0.121607
  C       1.728210      0.033476     -0.742862
  C       0.262929      0.225460     -0.459793
  C      -0.338781     -0.882004      0.446336
  C       0.543968     -2.126641      0.508838
  C       1.985035     -1.820751      0.829221
  C      -1.782253     -1.271103      0.047890
  C      -2.803474     -0.172956      0.363529
  C      -2.513666      1.238347     -0.110601
  C      -1.370784      1.892665      0.646697
  C       0.047226      1.678219      0.086117
  C       0.242386      2.678156     -1.056092
  C       1.032187      2.007473      1.204720
  C      -1.920240     -1.710335     -1.406837
  O      -2.115327     -2.390085      0.879090
  H       4.542625     -1.270844      0.496851
  H       4.289547     -1.415636     -1.232574
  H       4.423959      0.174604     -0.505659
  H       2.161791      0.726031     -1.455968
  H      -0.258004      0.211369     -1.419656
  H      -0.408227     -0.499352      1.469644
  H       0.124175     -2.822804      1.231635
  H       0.525797     -2.635824     -0.458455
  H       2.569341     -2.742620      0.745502
  H       2.121007     -1.481578      1.863716
  H      -2.917120     -0.153705      1.450752
  H      -3.766021     -0.499073     -0.046196
  H      -3.419800      1.823462      0.067530
  H      -2.352722      1.278428     -1.191720
  H      -1.529423      2.973784      0.683708
  H      -1.408712      1.555390      1.686540
  H       1.222064      2.597989     -1.526297
  H       0.148437      3.699946     -0.683584
  H      -0.507511      2.540125     -1.838061
  H       1.009594      1.251291      1.991883
  H       2.056577      2.069386      0.839301
  H       0.777044      2.966567      1.660717
  H      -1.187060     -2.467031     -1.677568
  H      -1.825128     -0.876801     -2.101523
  H      -2.912824     -2.140471     -1.554125
  H      -3.039310     -2.604693      0.740442
42
Coordinates from ORCA-job ./output/himachalol/himachalol E -117.228193167034
  C       4.027377     -0.817157     -0.302219
  C       2.545800     -0.810713     -0.109191
  C       1.739780      0.042910     -0.728994
  C       0.268214      0.223413     -0.466990
  C      -0.335574     -0.886515      0.437578
  C       0.542395     -2.137019      0.480696
  C       1.985842     -1.852847      0.801067
  C      -1.782617     -1.272118      0.049237
  C      -2.800476     -0.173501      0.380288
  C      -2.515422      1.236826     -0.098129
  C      -1.368666      1.893837      0.650055
  C       0.046310      1.678881      0.077094
  C       0.223995      2.677269     -1.070198
  C       1.038223      2.018638      1.187979
  C      -1.933158     -1.699500     -1.408694
  O      -2.112689     -2.396940      0.873027
  H       4.535527     -1.103016      0.620312
  H       4.337452     -1.536576     -1.066300
  H       4.409427      0.155980     -0.612999
  H       2.186293      0.757424     -1.411265
  H      -0.246699      0.208939     -1.431017
  H      -0.396303     -0.509236      1.464055
  H       0.120007     -2.845045      1.190955
  H       0.516974     -2.627922     -0.496391
  H       2.559775     -2.775909      0.660421
  H       2.148743     -1.563599      1.846956
  H      -2.902614     -0.155720      1.468835
  H      -3.768007     -0.497807     -0.020305
  H      -3.420346      1.820625      0.095171
  H      -2.369874      1.280529     -1.181291
  H      -1.528099      2.975373      0.680709
  H      -1.397715      1.562858      1.692522
  H       1.192268      2.594362     -1.564302
  H       0.143235      3.700187     -0.696920
  H      -0.543093      2.541146     -1.836195
  H       1.039320      1.255516      1.969307
  H       2.057829      2.102225      0.812739
  H       0.771770      2.970253      1.653874
  H      -1.213923     -2.466923     -1.687246
  H      -1.824904     -0.862160     -2.097840
  H      -2.933539     -2.111981     -1.556000
  H      -3.042836     -2.594988      0.749611
42
Coordinates from ORCA-job ./output/himachalol/himachalol E -117.229227580872
  C       4.021561     -0.842493     -0.319548
  C       2.545986     -0.810390     -0.101726
  C       1.748404      0.057061     -0.712430
  C       0.272543      0.227733     -0.455281
  C      -0.334930     -0.884837      0.437971
  C       0.542744     -2.138104      0.474976
  C       1.985163     -1.850391      0.807453
  C      -1.779911     -1.271701      0.048804
  C      -2.799791     -0.180506      0.391113
  C      -2.514917      1.228166     -0.095531
  C      -1.373535      1.890952      0.660111
  C       0.039365      1.680483      0.083957
  C       0.214427      2.674133     -1.066732
  C       1.030424      2.029704      1.194474
  C      -1.921382     -1.669792     -1.418524
  O      -2.100798     -2.407755      0.850022
  H       4.544705     -0.967580      0.630841
  H       4.313767     -1.686493     -0.950406
  H       4.386078      0.065301     -0.799499
  H       2.200801      0.766856     -1.393849
  H      -0.226722      0.200106     -1.427456
  H      -0.390765     -0.513658      1.466586
  H       0.128115     -2.850189      1.184479
  H       0.520684     -2.621765     -0.504157
  H       2.560389     -2.772480      0.670539
  H       2.137722     -1.548012      1.848966
  H      -2.901693     -0.160626      1.478536
  H      -3.770471     -0.500560     -0.004736
  H      -3.420507      1.812725      0.089314
  H      -2.361018      1.262353     -1.175498
  H      -1.545892      2.969491      0.693623
  H      -1.400788      1.561136      1.701677
  H       1.186110      2.595125     -1.553610
  H       0.124571      3.698078     -0.700978
  H      -0.546788      2.525076     -1.834987
  H       1.034576      1.268664      1.976416
  H       2.049044      2.119207      0.819853
  H       0.760851      2.982207      1.654733
  H      -1.192836     -2.424619     -1.704814
  H      -1.818889     -0.819532     -2.090986
  H      -2.914985     -2.090492     -1.582923
  H      -3.031415     -2.602583      0.729224
42
Coordinates from ORCA-job ./output/himachalol/himachalol E -117.230146991744
  C       4.013951     -0.863383     -0.367337
  C       2.543179     -0.812693     -0.113623
  C       1.745465      0.059089     -0.712581
  C       0.273205      0.233559     -0.441605
  C      -0.334231     -0.880200      0.440113
  C       0.543575     -2.131366      0.485540
  C       1.983724     -1.827019      0.827749
  C      -1.777617     -1.266686      0.040606
  C      -2.800651     -0.184901      0.381701
  C      -2.515208      1.226666     -0.098010
  C      -1.374730      1.883272      0.666958
  C       0.036727      1.680287      0.097097
  C       0.221822      2.673490     -1.049641
  C       1.021201      2.024880      1.212750
  C      -1.908110     -1.656409     -1.428307
  O      -2.094177     -2.405640      0.835032
  H       4.562753     -0.887116      0.575812
  H       4.281912     -1.772255     -0.908983
  H       4.356324     -0.008982     -0.947599
  H       2.191418      0.754017     -1.412665
  H      -0.217141      0.197484     -1.416070
  H      -0.392483     -0.511575      1.468284
  H       0.131667     -2.836076      1.201502
  H       0.531048     -2.622516     -0.487950
  H       2.568217     -2.746369      0.744801
  H       2.100519     -1.475724      1.857005
  H      -2.907823     -0.166925      1.467719
  H      -3.769041     -0.505025     -0.016684
  H      -3.420670      1.812261      0.071256
  H      -2.343718      1.255472     -1.174031
  H      -1.550874      2.959276      0.717632
  H      -1.405261      1.538948      1.702281
  H       1.201970      2.596819     -1.515397
  H       0.119488      3.696137     -0.686599
  H      -0.524902      2.519398     -1.829140
  H       1.010188      1.267728      1.996611
  H       2.042636      2.105421      0.846985
  H       0.754583      2.980673      1.664776
  H      -1.162727     -2.393695     -1.713748
  H      -1.824311     -0.803521     -2.096348
  H      -2.890155     -2.098627     -1.598384
  H      -3.021745     -2.608177      0.712491
42
Coordinates from ORCA-job ./output/himachalol/himachalol E -117.230624912909
  C       4.011604     -0.869067     -0.393810
  C       2.542457     -0.814168     -0.128502
  C       1.739308      0.056354     -0.719338
  C       0.271629      0.238029     -0.437389
  C      -0.332488     -0.879164      0.440363
  C       0.545251     -2.127830      0.488093
  C       1.984475     -1.815056      0.831714
  C      -1.776645     -1.262581      0.032167
  C      -2.801721     -0.183727      0.367604
  C      -2.516874      1.232412     -0.097922
  C      -1.373783      1.878550      0.670607
  C       0.037914      1.681456      0.106315
  C       0.230185      2.679787     -1.034075
  C       1.017847      2.015277      1.227135
  C      -1.902010     -1.661280     -1.433394
  O      -2.098057     -2.400150      0.832201
  H       4.571609     -0.757090      0.536097
  H       4.289365     -1.838035     -0.811904
  H       4.329485     -0.091363     -1.084501
  H       2.176711      0.746014     -1.430878
  H      -0.220554      0.204674     -1.410404
  H      -0.394956     -0.513489      1.468944
  H       0.129371     -2.828512      1.205018
  H       0.537735     -2.624077     -0.483046
  H       2.576026     -2.731144      0.784303
  H       2.078468     -1.440330      1.855510
  H      -2.912673     -0.170691      1.453681
  H      -3.766202     -0.506998     -0.036417
  H      -3.422236      1.818117      0.064789
  H      -2.335885      1.264877     -1.173343
  H      -1.544458      2.954580      0.736984
  H      -1.407409      1.517820      1.700445
  H       1.213042      2.601055     -1.492619
  H       0.127560      3.700468     -0.665413
  H      -0.512772      2.533944     -1.818433
  H       0.995542      1.256776      2.009433
  H       2.041831      2.089034      0.867789
  H       0.752857      2.970902      1.680340
  H      -1.149926     -2.393842     -1.713654
  H      -1.826216     -0.812867     -2.107479
  H      -2.880091     -2.113570     -1.598616
  H      -3.025314     -2.605093      0.711605
42
Coordinates from ORCA-job ./output/himachalol/himachalol E -117.230722976019
  C       4.003598     -0.879001     -0.438572
  C       2.538368     -0.814690     -0.144372
  C       1.726950      0.047494     -0.736378
  C       0.265774      0.241623     -0.433273
  C      -0.334958     -0.877147      0.446011
  C       0.548626     -2.119516      0.508080
  C       1.983716     -1.783050      0.853262
  C      -1.775804     -1.262311      0.027234
  C      -2.804581     -0.182546      0.349191
  C      -2.514413      1.236182     -0.106089
  C      -1.375078      1.875892      0.673193
  C       0.039869      1.681621      0.118199
  C       0.246386      2.686777     -1.013807
  C       1.015982      2.000281      1.245829
  C      -1.889153     -1.673244     -1.435433
  O      -2.102657     -2.396295      0.834099
  H       4.584776     -0.779777      0.479505
  H       4.264915     -1.843541     -0.875675
  H       4.312538     -0.092235     -1.123454
  H       2.149066      0.716235     -1.477593
  H      -0.235200      0.213638     -1.401919
  H      -0.406914     -0.509810      1.473152
  H       0.133303     -2.811936      1.233736
  H       0.549987     -2.630950     -0.455430
  H       2.586483     -2.692268      0.865158
  H       2.046571     -1.362887      1.862261
  H      -2.927622     -0.172074      1.434365
  H      -3.763334     -0.507276     -0.066840
  H      -3.420835      1.823165      0.043351
  H      -2.318477      1.269652     -1.179793
  H      -1.543340      2.951773      0.750876
  H      -1.416776      1.503621      1.698978
  H       1.238249      2.611500     -1.453469
  H       0.133712      3.704943     -0.640608
  H      -0.483116      2.544854     -1.811537
  H       0.972772      1.245018      2.030515
  H       2.043640      2.053784      0.893095
  H       0.763229      2.961016      1.695768
  H      -1.125212     -2.396318     -1.708658
  H      -1.824714     -0.828593     -2.115950
  H      -2.860480     -2.140724     -1.598989
  H      -3.025848     -2.612880      0.701983
42
Coordinates from ORCA-job ./output/himachalol/himachalol E -117.230794598109
  C       4.002040     -0.877893     -0.437670
  C       2.538249     -0.812730     -0.146553
  C       1.725150      0.046999     -0.741689
  C       0.264452      0.242126     -0.436777
  C      -0.335715     -0.878625      0.443974
  C       0.550199     -2.119750      0.506285
  C       1.984283     -1.781107      0.850887
  C      -1.775860     -1.264338      0.025718
  C      -2.804570     -0.182059      0.347079
  C      -2.512823      1.236866     -0.106382
  C      -1.375297      1.876833      0.674811
  C       0.041382      1.681853      0.120201
  C       0.249024      2.691146     -1.008621
  C       1.018151      1.996127      1.249001
  C      -1.891279     -1.678259     -1.436598
  O      -2.104220     -2.397713      0.834504
  H       4.581891     -0.716852      0.473172
  H       4.277640     -1.863343     -0.817267
  H       4.302487     -0.129632     -1.168669
  H       2.145455      0.714733     -1.484979
  H      -0.241581      0.220477     -1.403177
  H      -0.409709     -0.511657      1.471369
  H       0.134366     -2.813681      1.231134
  H       0.551768     -2.631467     -0.457560
  H       2.588510     -2.690289      0.862537
  H       2.049228     -1.362804      1.861006
  H      -2.929193     -0.173536      1.432375
  H      -3.762529     -0.506264     -0.071957
  H      -3.420026      1.823340      0.044769
  H      -2.318343      1.273769     -1.180692
  H      -1.542449      2.953381      0.750964
  H      -1.418276      1.505559      1.701309
  H       1.241002      2.617377     -1.449459
  H       0.137061      3.708252     -0.631416
  H      -0.480801      2.552821     -1.807231
  H       0.973924      1.239157      2.032489
  H       2.046030      2.047569      0.895562
  H       0.767860      2.956442      1.702095
  H      -1.129819     -2.403839     -1.710816
  H      -1.824768     -0.833904     -2.118225
  H      -2.864830     -2.142591     -1.597957
  H      -3.028063     -2.612498      0.702451
42
Coordinates from ORCA-job ./output/himachalol/himachalol E -117.230818741687
  C       3.997816     -0.879958     -0.445966
  C       2.536063     -0.810618     -0.149617
  C       1.721509      0.045597     -0.748437
  C       0.262334      0.242277     -0.437450
  C      -0.337306     -0.878042      0.445000
  C       0.551476     -2.117115      0.511801
  C       1.984341     -1.772665      0.854608
  C      -1.775376     -1.266178      0.025841
  C      -2.804653     -0.182452      0.343934
  C      -2.510536      1.235986     -0.109918
  C      -1.376202      1.877632      0.674841
  C       0.042209      1.681176      0.123191
  C       0.254159      2.693161     -1.002554
  C       1.017664      1.991209      1.254257
  C      -1.888726     -1.681782     -1.436377
  O      -2.104202     -2.398297      0.835591
  H       4.581361     -0.717092      0.462329
  H       4.271776     -1.866366     -0.824513
  H       4.297061     -0.134288     -1.180240
  H       2.138607      0.707936     -1.498182
  H      -0.248984      0.224497     -1.401017
  H      -0.413858     -0.509183      1.471552
  H       0.137918     -2.809664      1.239417
  H       0.553355     -2.632444     -0.450164
  H       2.590463     -2.680697      0.871866
  H       2.050050     -1.347867      1.861961
  H      -2.932833     -0.174046      1.428717
  H      -3.761501     -0.505777     -0.078433
  H      -3.418430      1.822096      0.040244
  H      -2.315083      1.273872     -1.183822
  H      -1.544071      2.954258      0.747922
  H      -1.421890      1.509147      1.702169
  H       1.248700      2.622559     -1.438245
  H       0.138340      3.709308     -0.623966
  H      -0.470983      2.554745     -1.805507
  H       0.968962      1.234465      2.037746
  H       2.046282      2.037990      0.902177
  H       0.771167      2.952503      1.707353
  H      -1.126251     -2.406639     -1.709942
  H      -1.822003     -0.837285     -2.117957
  H      -2.861890     -2.146562     -1.598916
  H      -3.026837     -2.615400      0.698708
42
Coordinates from ORCA-job ./output/himachalol/himachalol E -117.230832444433
  C       3.991665     -0.883944     -0.461649
  C       2.532575     -0.807977     -0.155775
  C       1.715563      0.043355     -0.758421
  C       0.259317      0.243070     -0.437121
  C      -0.339390     -0.876505      0.446978
  C       0.553107     -2.112360      0.521880
  C       1.984552     -1.758708      0.861245
  C      -1.774709     -1.267991      0.024866
  C      -2.805114     -0.183142      0.337662
  C      -2.508375      1.235508     -0.114662
  C      -1.377486      1.877903      0.674879
  C       0.043324      1.680217      0.128389
  C       0.262619      2.695758     -0.992746
  C       1.016416      1.983459      1.262930
  C      -1.883797     -1.686566     -1.436857
  O      -2.104218     -2.398230      0.836323
  H       4.581967     -0.717500      0.441641
  H       4.261276     -1.872772     -0.836823
  H       4.288332     -0.143316     -1.202071
  H       2.127039      0.696871     -1.518809
  H      -0.259049      0.230247     -1.396716
  H      -0.420232     -0.504670      1.471999
  H       0.142666     -2.801292      1.254717
  H       0.555861     -2.634511     -0.436298
  H       2.593958     -2.664193      0.890464
  H       2.048928     -1.321050      1.863053
  H      -2.938439     -0.175272      1.421705
  H      -3.760158     -0.505513     -0.089427
  H      -3.417019      1.821015      0.034026
  H      -2.310616      1.275299     -1.187870
  H      -1.545975      2.954478      0.745820
  H      -1.427379      1.511055      1.702475
  H       1.261407      2.629206     -1.419207
  H       0.140698      3.710510     -0.612585
  H      -0.454733      2.557319     -1.802686
  H       0.959717      1.227708      2.046741
  H       2.046337      2.022393      0.913666
  H       0.775740      2.946582      1.715140
  H      -1.118341     -2.409000     -1.708464
  H      -1.818447     -0.842466     -2.119026
  H      -2.855220     -2.154310     -1.601041
  H      -3.024369     -2.620665      0.691656
42
Coordinates from ORCA-job ./output/himachalol/himachalol E -117.230835451501
  C       3.989501     -0.885870     -0.468181
  C       2.531230     -0.807256     -0.158509
  C       1.713377      0.042767     -0.761716
  C       0.258303      0.243547     -0.436311
  C      -0.340004     -0.875704      0.448225
  C       0.553500     -2.110543      0.526434
  C       1.985042     -1.754289      0.863165
  C      -1.774422     -1.268426      0.024439
  C      -2.805296     -0.183463      0.335139
  C      -2.508246      1.235588     -0.116174
  C      -1.378174      1.878216      0.674497
  C       0.043512      1.680140      0.130466
  C       0.265901      2.696547     -0.989251
  C       1.015195      1.981246      1.266598
  C      -1.881172     -1.687932     -1.437100
  O      -2.104302     -2.398011      0.836361
  H       4.582438     -0.717891      0.433042
  H       4.256758     -1.876147     -0.841085
  H       4.285280     -0.147867     -1.211505
  H       2.122833      0.693302     -1.525714
  H      -0.262372      0.232103     -1.394605
  H      -0.422557     -0.502595      1.472576
  H       0.144455     -2.797410      1.261929
  H       0.555870     -2.635835     -0.429985
  H       2.595347     -2.658985      0.895233
  H       2.050124     -1.312352      1.862954
  H      -2.940340     -0.175657      1.418950
  H      -3.759769     -0.505559     -0.093341
  H      -3.417120      1.820628      0.032628
  H      -2.309928      1.276345     -1.189214
  H      -1.546942      2.954771      0.744526
  H      -1.429752      1.511919      1.702164
  H       1.266369      2.631101     -1.411872
  H       0.141721      3.710953     -0.608990
  H      -0.448379      2.557900     -1.801865
  H       0.955147      1.226247      2.050811
  H       2.045777      2.017305      0.919009
  H       0.776331      2.945249      1.717838
  H      -1.114328     -2.409401     -1.707396
  H      -1.816151     -0.844102     -2.119568
  H      -2.851699     -2.157080     -1.602437
  H      -3.023062     -2.623500      0.687835
42
Coordinates from ORCA-job ./output/himachalol/himachalol E -117.230836976216
  C       3.988314     -0.887308     -0.471990
  C       2.530383     -0.806894     -0.160133
  C       1.712148      0.042642     -0.763380
  C       0.257763      0.244091     -0.435702
  C      -0.340314     -0.874981      0.449007
  C       0.553520     -2.109296      0.529888
  C       1.985511     -1.752087      0.864196
  C      -1.774192     -1.268538      0.023808
  C      -2.805345     -0.183781      0.333537
  C      -2.508675      1.235858     -0.116478
  C      -1.378599      1.878492      0.674263
  C       0.043531      1.680311      0.131662
  C       0.267667      2.697046     -0.987378
  C       1.014503      1.980298      1.268548
  C      -1.879394     -1.688540     -1.437613
  O      -2.104203     -2.397838      0.835898
  H       4.582757     -0.718279      0.428009
  H       4.253660     -1.878875     -0.842820
  H       4.283794     -0.151390     -1.217445
  H       2.120607      0.691460     -1.529340
  H      -0.263969      0.233387     -1.393358
  H      -0.424287     -0.500847      1.472812
  H       0.145326     -2.794179      1.267673
  H       0.555311     -2.637267     -0.425026
  H       2.596090     -2.656526      0.896778
  H       2.051893     -1.307959      1.862887
  H      -2.941179     -0.176217      1.417263
  H      -3.759595     -0.505653     -0.095544
  H      -3.417648      1.820346      0.033452
  H      -2.310651      1.277832     -1.189553
  H      -1.547595      2.955031      0.743778
  H      -1.431101      1.512365      1.701952
  H       1.269157      2.632206     -1.407566
  H       0.141994      3.711311     -0.607294
  H      -0.444768      2.558049     -1.801527
  H       0.952238      1.226214      2.053424
  H       2.045487      2.014217      0.921940
  H       0.777015      2.945159      1.718656
  H      -1.111490     -2.409214     -1.707017
  H      -1.814934     -0.844974     -2.120366
  H      -2.849182     -2.158977     -1.603645
  H      -3.021550     -2.626697      0.683741
42
Coordinates from ORCA-job ./output/himachalol/himachalol E -117.230837186624
  C       3.988261     -0.887461     -0.472445
  C       2.530328     -0.807005     -0.160420
  C       1.712041      0.042707     -0.763331
  C       0.257670      0.244213     -0.435549
  C      -0.340240     -0.874873      0.449283
  C       0.553492     -2.109220      0.530390
  C       1.985769     -1.752366      0.863925
  C      -1.774139     -1.268474      0.023907
  C      -2.805300     -0.183717      0.333449
  C      -2.508836      1.235989     -0.116499
  C      -1.378735      1.878786      0.674042
  C       0.043425      1.680485      0.131731
  C       0.267891      2.697167     -0.987328
  C       1.014133      1.980382      1.268868
  C      -1.879074     -1.688575     -1.437481
  O      -2.104318     -2.397705      0.836054
  H       4.582795     -0.718306      0.427472
  H       4.253271     -1.879250     -0.842945
  H       4.283685     -0.151788     -1.218159
  H       2.120556      0.691688     -1.529142
  H      -0.264010      0.233370     -1.393261
  H      -0.424359     -0.500592      1.473036
  H       0.145485     -2.793612      1.268731
  H       0.554882     -2.637778     -0.424216
  H       2.596153     -2.656956      0.895748
  H       2.052815     -1.308411      1.862657
  H      -2.941201     -0.176027      1.417181
  H      -3.759570     -0.505607     -0.095590
  H      -3.417837      1.820378      0.033652
  H      -2.310871      1.278048     -1.189627
  H      -1.547781      2.955347      0.743262
  H      -1.431447      1.512825      1.701806
  H       1.269507      2.632168     -1.407217
  H       0.142183      3.711477     -0.607339
  H      -0.444397      2.558196     -1.801621
  H       0.951393      1.226472      2.053889
  H       2.045244      2.013985      0.922593
  H       0.776732      2.945409      1.718717
  H      -1.111131     -2.409318     -1.706650
  H      -1.814549     -0.845109     -2.120376
  H      -2.848841     -2.159045     -1.603640
  H      -3.021075     -2.627901      0.682439
