! wB97X-3c OPT FREQ TightSCF
%pal
  nprocs 40
end
* xyz 0 1
C      4.011868    -0.946959    -0.524869
C      2.564813    -0.827891    -0.130409
C      1.767826     0.038527    -0.779744
C      0.292647     0.249830    -0.440964
C     -0.339568    -0.893242     0.454095
C      0.590954    -2.129228     0.578710
C      2.002658    -1.696029     0.957988
C     -1.807799    -1.314514     0.048108
C     -2.842643    -0.191629     0.362084
C     -2.508223     1.219494    -0.152031
C     -1.401362     1.896813     0.676497
C      0.044950     1.705836     0.121082
C      0.269888     2.747415    -1.007234
C      1.034426     2.033956     1.268997
C     -1.927731    -1.741594    -1.441601
O     -2.154204    -2.430791     0.842187
H      4.543565    -1.686386     0.109899
H      4.087027    -1.271465    -1.584243
H      4.513979     0.036766    -0.408174
H      2.194766     0.630184    -1.584554
H     -0.185253     0.204582    -1.433901
H     -0.408285    -0.512711     1.495881
H      0.220694    -2.814660     1.371527
H      0.632937    -2.698569    -0.373402
H      2.632834    -2.599516     1.104729
H      1.984440    -1.126730     1.912441
H     -3.005185    -0.143567     1.461871
H     -3.826624    -0.482863    -0.068548
H     -3.430559     1.831185    -0.041471
H     -2.276829     1.216781    -1.235632
H     -1.631038     2.984210     0.738063
H     -1.464214     1.548986     1.731318
H      1.317227     2.732723    -1.372425
H      0.070722     3.778180    -0.642013
H     -0.401141     2.553418    -1.870269
H      0.966922     1.282661     2.082989
H      2.084428     2.059564     0.907759
H      0.809521     3.032020     1.704079
H     -1.130039    -2.454817    -1.727064
H     -1.904511    -0.882699    -2.139461
H     -2.899997    -2.249461    -1.617850
H     -3.093888    -2.687812     0.645554
*
