42
Coordinates from ORCA-job ./output/himachalol/himachalol E -117.230837186624
  C           3.98826099202278     -0.88746060370269     -0.47244530605180
  C           2.53032801698076     -0.80700481208603     -0.16041950279630
  C           1.71204123399782      0.04270746251969     -0.76333103325216
  C           0.25766965223110      0.24421276211915     -0.43554893973794
  C          -0.34023977442992     -0.87487254383357      0.44928305773599
  C           0.55349234861087     -2.10921964813149      0.53039016523545
  C           1.98576851602423     -1.75236648571719      0.86392545966769
  C          -1.77413944443459     -1.26847367942201      0.02390724519866
  C          -2.80529970841772     -0.18371749620334      0.33344935865700
  C          -2.50883558532701      1.23598940159287     -0.11649922799321
  C          -1.37873475830395      1.87878619072712      0.67404226243642
  C           0.04342467239720      1.68048539143902      0.13173134274882
  C           0.26789147076909      2.69716702090090     -0.98732778329694
  C           1.01413321045354      1.98038166159273      1.26886803073691
  C          -1.87907395113515     -1.68857542214249     -1.43748089430249
  O          -2.10431839690300     -2.39770472790307      0.83605356519693
  H           4.58279473916365     -0.71830583899776      0.42747205441125
  H           4.25327064965321     -1.87924956862362     -0.84294501721999
  H           4.28368464680685     -0.15178765919465     -1.21815861176390
  H           2.12055612875344      0.69168760865702     -1.52914154953636
  H          -0.26401032184855      0.23336977617191     -1.39326084045039
  H          -0.42435869197451     -0.50059202082866      1.47303573792962
  H           0.14548456234405     -2.79361192046051      1.26873146025850
  H           0.55488225386139     -2.63777779927947     -0.42421582776073
  H           2.59615288604099     -2.65695604043110      0.89574808513602
  H           2.05281547519255     -1.30841069356794      1.86265726931795
  H          -2.94120093762807     -0.17602681802814      1.41718124981228
  H          -3.75956972727457     -0.50560670288741     -0.09559031620108
  H          -3.41783700129701      1.82037796230190      0.03365170534782
  H          -2.31087094716553      1.27804778112097     -1.18962725132535
  H          -1.54778116328132      2.95534698063266      0.74326223642886
  H          -1.43144693238660      1.51282540792845      1.70180622420356
  H           1.26950650338069      2.63216823759309     -1.40721702572574
  H           0.14218281765843      3.71147669189694     -0.60733937470411
  H          -0.44439685625498      2.55819609361051     -1.80162051494601
  H           0.95139343346250      1.22647170432873      2.05388878808622
  H           2.04524350864053      2.01398478440261      0.92259268543460
  H           0.77673211593938      2.94540887415687      1.71871650216322
  H          -1.11113087386897     -2.40931802393556     -1.70665023866882
  H          -1.81454930722666     -0.84510935840326     -2.12037571659158
  H          -2.84884123261925     -2.15904451186047     -1.60363964893419
  H          -3.02107522260770     -2.62790141805273      0.68243913511534
