29
Coordinates from ORCA-job ./output/geraniol/geraniol E -83.840825528350
  C      -1.880650      1.752596     -0.037168
  C      -2.471992      0.497006      0.560000
  C      -1.907032     -0.717655      0.380645
  C      -0.628409     -0.960989     -0.381597
  C       0.592274     -0.795165      0.530125
  C       1.875228     -1.040695     -0.239466
  C       2.529965     -0.058525     -0.898173
  C       2.087999      1.382842     -0.914119
  O       2.946235      2.144631     -1.718783
  C       2.423418     -2.442353     -0.310490
  C      -3.741486      0.585887      1.367232
  H      -0.856554      1.919465      0.352600
  H      -1.849598      1.670352     -1.143603
  H      -2.486226      2.647135      0.216716
  H      -2.388223     -1.589697      0.817183
  H      -0.561220     -0.296985     -1.267814
  H      -0.647296     -2.005224     -0.762707
  H       0.600374      0.207014      1.004157
  H       0.518599     -1.525612      1.365376
  H       3.433494     -0.312207     -1.448320
  H       2.073464      1.793325      0.120611
  H       1.064922      1.452665     -1.336024
  H       3.778453      2.284048     -1.195057
  H       2.487504     -2.768442     -1.370324
  H       3.436816     -2.472892      0.142683
  H       1.772899     -3.159550      0.232963
  H      -4.533127     -0.030911      0.891322
  H      -4.111545      1.629687      1.439807
  H      -3.558287      0.210248      2.396269
29
Coordinates from ORCA-job ./output/geraniol/geraniol E -83.849578292894
  C      -1.932941      1.723135     -0.084487
  C      -2.483471      0.477913      0.556982
  C      -1.897138     -0.710365      0.402317
  C      -0.624606     -0.950916     -0.359997
  C       0.616240     -0.777192      0.519062
  C       1.885298     -1.033192     -0.248204
  C       2.541664     -0.060394     -0.882664
  C       2.144521      1.392027     -0.873674
  O       3.000017      2.181186     -1.671622
  C       2.385797     -2.453901     -0.338495
  C      -3.743774      0.578435      1.381742
  H      -0.922838      1.930046      0.266542
  H      -1.909943      1.618764     -1.169599
  H      -2.544407      2.592650      0.148057
  H      -2.350470     -1.575372      0.875264
  H      -0.566493     -0.300699     -1.233241
  H      -0.635864     -1.974972     -0.740208
  H       0.628011      0.216337      0.968297
  H       0.551249     -1.478931      1.353629
  H       3.428868     -0.315217     -1.451510
  H       2.128940      1.773458      0.153287
  H       1.139801      1.504162     -1.279700
  H       3.819122      2.298024     -1.194261
  H       2.451202     -2.771661     -1.378337
  H       3.374366     -2.538355      0.111247
  H       1.721763     -3.145556      0.178462
  H      -4.527010     -0.049143      0.958237
  H      -4.120956      1.598464      1.423004
  H      -3.556949      0.251265      2.403915
29
Coordinates from ORCA-job ./output/geraniol/geraniol E -83.850620664431
  C      -2.007202      1.688395     -0.154418
  C      -2.502155      0.458494      0.557534
  C      -1.880218     -0.710833      0.447563
  C      -0.620937     -0.952144     -0.328841
  C       0.638206     -0.752343      0.517239
  C       1.891879     -1.021616     -0.263620
  C       2.564135     -0.052163     -0.873349
  C       2.211400      1.408488     -0.831080
  O       3.092446      2.201111     -1.600415
  C       2.336395     -2.457735     -0.391942
  C      -3.747261      0.572223      1.403772
  H      -0.996907      1.948006      0.155448
  H      -1.997781      1.538076     -1.232806
  H      -2.641103      2.546704      0.049896
  H      -2.289954     -1.562713      0.981668
  H      -0.579888     -0.309839     -1.207548
  H      -0.624672     -1.976761     -0.703005
  H       0.648969      0.253816      0.934058
  H       0.590484     -1.428147      1.372398
  H       3.437983     -0.308651     -1.463304
  H       2.190049      1.764173      0.202520
  H       1.218205      1.570723     -1.245061
  H       3.921985      2.279287     -1.131805
  H       2.406498     -2.753617     -1.436352
  H       3.312849     -2.602493      0.065495
  H       1.639760     -3.135691      0.095660
  H      -4.525811     -0.094239      1.038729
  H      -4.149237      1.581711      1.397531
  H      -3.538118      0.307776      2.438078
29
Coordinates from ORCA-job ./output/geraniol/geraniol E -83.851258300657
  C      -2.111918      1.632184     -0.254006
  C      -2.526447      0.435135      0.559993
  C      -1.854281     -0.708564      0.512661
  C      -0.616656     -0.956485     -0.287497
  C       0.663496     -0.722656      0.517027
  C       1.895529     -1.004767     -0.289148
  C       2.594595     -0.036777     -0.864984
  C       2.299697      1.432162     -0.775700
  O       3.230509      2.218483     -1.490440
  C       2.269733     -2.453324     -0.469008
  C      -3.746098      0.569915      1.437498
  H      -1.101126      1.957759     -0.009953
  H      -2.128190      1.412940     -1.321345
  H      -2.774628      2.476871     -0.085020
  H      -2.201389     -1.532096      1.130743
  H      -0.597581     -0.323063     -1.174803
  H      -0.616225     -1.985189     -0.652791
  H       0.667958      0.299633      0.893672
  H       0.644336     -1.368882      1.397756
  H       3.452228     -0.292441     -1.480114
  H       2.257517      1.753565      0.268754
  H       1.328915      1.661888     -1.214089
  H       4.064337      2.230807     -1.021504
  H       2.361795     -2.715562     -1.521484
  H       3.222298     -2.676165      0.009963
  H       1.523348     -3.113106     -0.031016
  H      -4.513863     -0.150565      1.159570
  H      -4.187374      1.560744      1.365006
  H      -3.500514      0.397555      2.484302
29
Coordinates from ORCA-job ./output/geraniol/geraniol E -83.851515285380
  C      -2.198460      1.596369     -0.313669
  C      -2.548898      0.424161      0.564847
  C      -1.838521     -0.698106      0.551528
  C      -0.617068     -0.946372     -0.270544
  C       0.676078     -0.699978      0.510598
  C       1.895587     -0.992689     -0.311652
  C       2.618556     -0.030196     -0.868603
  C       2.366564      1.444725     -0.754671
  O       3.351655      2.212904     -1.412267
  C       2.234103     -2.445937     -0.510923
  C      -3.747130      0.562665      1.469005
  H      -1.189770      1.962523     -0.120502
  H      -2.240884      1.333067     -1.370871
  H      -2.880466      2.428717     -0.158293
  H      -2.139401     -1.501160      1.219248
  H      -0.612800     -0.312788     -1.158374
  H      -0.620079     -1.975447     -0.635746
  H       0.678354      0.329806      0.866650
  H       0.673936     -1.331284      1.403402
  H       3.467942     -0.291640     -1.492976
  H       2.290045      1.746617      0.294125
  H       1.424418      1.720061     -1.229353
  H       4.174560      2.167362     -0.924972
  H       2.365790     -2.689977     -1.564055
  H       3.158083     -2.710953      0.003198
  H       1.450331     -3.092197     -0.119612
  H      -4.498984     -0.195318      1.251280
  H      -4.223746      1.534089      1.360401
  H      -3.469797      0.450975      2.516846
29
Coordinates from ORCA-job ./output/geraniol/geraniol E -83.851958231691
  C      -2.329656      1.548108     -0.386079
  C      -2.582566      0.414770      0.573671
  C      -1.815023     -0.670849      0.598299
  C      -0.617845     -0.916412     -0.258081
  C       0.691903     -0.669543      0.497308
  C       1.896342     -0.976193     -0.344174
  C       2.650821     -0.025381     -0.882877
  C       2.455612      1.456731     -0.747536
  O       3.534150      2.185950     -1.290284
  C       2.198209     -2.433592     -0.557820
  C      -3.746568      0.550194      1.520055
  H      -1.326072      1.960661     -0.272596
  H      -2.420608      1.227724     -1.424858
  H      -3.033516      2.363524     -0.235035
  H      -2.046305     -1.442562      1.328189
  H      -0.630251     -0.272839     -1.138635
  H      -0.634469     -1.942228     -0.632918
  H       0.695015      0.366579      0.834875
  H       0.708529     -1.289356      1.399160
  H       3.488478     -0.299675     -1.517524
  H       2.295748      1.740208      0.297275
  H       1.577463      1.790822     -1.302151
  H       4.317635      2.048024     -0.756599
  H       2.431960     -2.653939     -1.598798
  H       3.052945     -2.751760      0.041131
  H       1.354911     -3.059214     -0.269212
  H      -4.464932     -0.259254      1.387954
  H      -4.280809      1.486183      1.370877
  H      -3.421104      0.523319      2.560427
29
Coordinates from ORCA-job ./output/geraniol/geraniol E -83.852906494435
  C      -2.496754      1.487926     -0.460684
  C      -2.621495      0.412577      0.587230
  C      -1.781740     -0.619697      0.646687
  C      -0.616843     -0.862585     -0.253691
  C       0.712051     -0.640118      0.478677
  C       1.899663     -0.958688     -0.385510
  C       2.686198     -0.023212     -0.911637
  C       2.552700      1.465297     -0.763236
  O       3.745706      2.129484     -1.112117
  C       2.173498     -2.418182     -0.605483
  C      -3.739053      0.539271      1.587544
  H      -1.504635      1.943076     -0.456239
  H      -2.659683      1.098388     -1.467117
  H      -3.219134      2.286234     -0.301289
  H      -1.924387     -1.347353      1.441852
  H      -0.640671     -0.195656     -1.115976
  H      -0.664105     -1.879113     -0.651363
  H       0.722710      0.397813      0.810412
  H       0.744988     -1.261805      1.379915
  H       3.508378     -0.314730     -1.558561
  H       2.249019      1.742724      0.250874
  H       1.794642      1.860553     -1.442407
  H       4.442343      1.870743     -0.506595
  H       2.591525     -2.613806     -1.592502
  H       2.886241     -2.796705      0.130801
  H       1.266723     -3.013189     -0.503553
  H      -4.398924     -0.329140      1.562519
  H      -4.352160      1.418904      1.399129
  H      -3.356802      0.620989      2.606364
29
Coordinates from ORCA-job ./output/geraniol/geraniol E -83.853919671044
  C      -2.654336      1.419540     -0.515055
  C      -2.656480      0.409041      0.602485
  C      -1.746327     -0.561161      0.687434
  C      -0.609748     -0.799344     -0.249134
  C       0.736587     -0.605081      0.461131
  C       1.906797     -0.937894     -0.422969
  C       2.723430     -0.022094     -0.941737
  C       2.653175      1.469422     -0.786863
  O       3.925898      2.056545     -0.931012
  C       2.143706     -2.399972     -0.649914
  C      -3.734085      0.526218      1.645945
  H      -1.684099      1.910286     -0.612630
  H      -2.875076      0.963195     -1.481991
  H      -3.395158      2.199806     -0.348754
  H      -1.806187     -1.241954      1.533307
  H      -0.641216     -0.110267     -1.093301
  H      -0.685193     -1.805350     -0.669271
  H       0.760046      0.432927      0.791108
  H       0.779884     -1.230786      1.359690
  H       3.530486     -0.333706     -1.598374
  H       2.209831      1.760147      0.170080
  H       2.040870      1.915197     -1.573727
  H       4.516775      1.695393     -0.267666
  H       2.733597     -2.588858     -1.546275
  H       2.682469     -2.839052      0.194143
  H       1.206048     -2.947459     -0.743130
  H      -4.322955     -0.389607      1.719625
  H      -4.424096      1.339189      1.425049
  H      -3.314645      0.715678      2.635852
29
Coordinates from ORCA-job ./output/geraniol/geraniol E -83.855553443426
  C      -2.728371      1.415102     -0.512687
  C      -2.669093      0.424842      0.619728
  C      -1.723290     -0.508978      0.703398
  C      -0.594787     -0.732588     -0.250026
  C       0.759119     -0.601312      0.458843
  C       1.921705     -0.936048     -0.434360
  C       2.735390     -0.034086     -0.982606
  C       2.684520      1.458177     -0.864224
  O       3.983827      2.007668     -0.810554
  C       2.156643     -2.397224     -0.650006
  C      -3.737862      0.505602      1.678101
  H      -1.769545      1.911343     -0.661155
  H      -2.994446      0.936673     -1.456649
  H      -3.467331      2.191226     -0.322876
  H      -1.752475     -1.187036      1.552821
  H      -0.618970     -0.015626     -1.070249
  H      -0.699076     -1.722094     -0.701844
  H       0.815786      0.420583      0.829254
  H       0.786327     -1.262389      1.330238
  H       3.535549     -0.371427     -1.634945
  H       2.102905      1.780556      0.002296
  H       2.221070      1.894802     -1.749557
  H       4.457783      1.603787     -0.082403
  H       2.906108     -2.580444     -1.417724
  H       2.505286     -2.861100      0.276272
  H       1.242035     -2.916070     -0.938223
  H      -4.265212     -0.442594      1.785380
  H      -4.480245      1.266803      1.445680
  H      -3.313349      0.751853      2.652123
29
Coordinates from ORCA-job ./output/geraniol/geraniol E -83.856699358979
  C      -2.609518      1.519219     -0.435875
  C      -2.629433      0.455646      0.626764
  C      -1.723805     -0.512284      0.681292
  C      -0.564054     -0.714048     -0.244297
  C       0.775276     -0.650958      0.489300
  C       1.944065     -0.966651     -0.394722
  C       2.689307     -0.059245     -1.017777
  C       2.553515      1.425285     -0.974584
  O       3.811923      2.065894     -0.840864
  C       2.221966     -2.424815     -0.591827
  C      -3.746214      0.492374      1.643929
  H      -1.622332      1.961304     -0.540097
  H      -2.901147      1.110742     -1.402545
  H      -3.301618      2.323090     -0.199379
  H      -1.817954     -1.254370      1.469785
  H      -0.570891      0.017994     -1.049870
  H      -0.668541     -1.692498     -0.719512
  H       0.877751      0.333977      0.939897
  H       0.758827     -1.368521      1.310108
  H       3.499754     -0.406775     -1.651667
  H       1.881404      1.743154     -0.177410
  H       2.139544      1.780772     -1.915512
  H       4.232181      1.729101     -0.050683
  H       3.031264     -2.579141     -1.299426
  H       2.499759     -2.873263      0.362215
  H       1.344671     -2.960576     -0.955877
  H      -4.273403     -0.458009      1.680374
  H      -4.475936      1.264000      1.413770
  H      -3.356361      0.698603      2.638535
29
Coordinates from ORCA-job ./output/geraniol/geraniol E -83.857302909705
  C      -2.660358      1.497572     -0.456171
  C      -2.626072      0.460942      0.634100
  C      -1.691650     -0.480354      0.697150
  C      -0.546575     -0.679758     -0.242490
  C       0.799616     -0.652677      0.478424
  C       1.954189     -0.973179     -0.423608
  C       2.695243     -0.065896     -1.053196
  C       2.558480      1.417129     -1.012459
  O       3.778078      2.049362     -0.661120
  C       2.223871     -2.434951     -0.612201
  C      -3.719134      0.504236      1.674841
  H      -1.673538      1.913859     -0.648486
  H      -3.031438      1.072733     -1.388803
  H      -3.315851      2.323839     -0.191362
  H      -1.743768     -1.196178      1.514194
  H      -0.548379      0.071994     -1.029427
  H      -0.669605     -1.644456     -0.741709
  H       0.922952      0.323919      0.944233
  H       0.778851     -1.383799      1.289778
  H       3.503014     -0.413095     -1.690764
  H       1.759626      1.732647     -0.339794
  H       2.314956      1.789382     -2.007324
  H       4.083741      1.669818      0.163421
  H       3.119581     -2.601416     -1.204477
  H       2.351947     -2.914141      0.359621
  H       1.390730     -2.935949     -1.105406
  H      -4.187231     -0.470777      1.794754
  H      -4.499517      1.213396      1.409179
  H      -3.321758      0.805794      2.643146
29
Coordinates from ORCA-job ./output/geraniol/geraniol E -83.858113652192
  C      -2.561397      1.560287     -0.415214
  C      -2.586571      0.474384      0.627948
  C      -1.691564     -0.507959      0.667591
  C      -0.535742     -0.708092     -0.254168
  C       0.802230     -0.696545      0.480388
  C       1.963230     -1.005418     -0.422289
  C       2.654666     -0.074933     -1.074416
  C       2.433045      1.398445     -1.033500
  O       3.595379      2.105233     -0.638138
  C       2.284803     -2.464192     -0.581757
  C      -3.697243      0.529107      1.646420
  H      -1.548408      1.894923     -0.635353
  H      -3.003769      1.214780     -1.350924
  H      -3.129077      2.429735     -0.089189
  H      -1.784922     -1.250588      1.457188
  H      -0.523949      0.049770     -1.035468
  H      -0.649751     -1.667623     -0.766068
  H       0.932177      0.269887      0.968195
  H       0.767179     -1.439008      1.283313
  H       3.475948     -0.389986     -1.711316
  H       1.587807      1.662786     -0.393533
  H       2.204161      1.766678     -2.035285
  H       3.893714      1.754193      0.202916
  H       3.165560     -2.617183     -1.201943
  H       2.460032     -2.927715      0.390194
  H       1.452096     -2.997722     -1.038936
  H      -4.152973     -0.449668      1.789321
  H      -4.483126      1.218890      1.344424
  H      -3.323536      0.867531      2.613644
29
Coordinates from ORCA-job ./output/geraniol/geraniol E -83.859416846267
  C      -2.417714      1.660147     -0.326861
  C      -2.529154      0.494451      0.618954
  C      -1.693922     -0.542387      0.608343
  C      -0.515843     -0.736171     -0.282364
  C       0.804070     -0.755892      0.484383
  C       1.982126     -1.046587     -0.410247
  C       2.602101     -0.094009     -1.103704
  C       2.260192      1.357745     -1.080464
  O       3.326347      2.162158     -0.615529
  C       2.376346     -2.491730     -0.522047
  C      -3.671089      0.551015      1.595586
  H      -1.390654      1.866335     -0.624925
  H      -2.987303      1.478161     -1.241512
  H      -2.816574      2.567024      0.126728
  H      -1.861350     -1.334392      1.335294
  H      -0.474713      0.038039     -1.047105
  H      -0.613178     -1.682147     -0.823503
  H       0.938520      0.190954      1.008930
  H       0.741103     -1.516704      1.269178
  H       3.439469     -0.368541     -1.737823
  H       1.351006      1.547422     -0.503943
  H       2.065332      1.716252     -2.093977
  H       3.601034      1.849557      0.248860
  H       3.230883     -2.632734     -1.182768
  H       2.621229     -2.921859      0.449677
  H       1.543651     -3.072804     -0.920528
  H      -4.059866     -0.441957      1.819148
  H      -4.493048      1.152322      1.207950
  H      -3.359002      1.006332      2.538312
29
Coordinates from ORCA-job ./output/geraniol/geraniol E -83.860741223247
  C      -2.384481      1.689357     -0.287307
  C      -2.512766      0.490805      0.608677
  C      -1.701611     -0.566068      0.571599
  C      -0.515278     -0.760701     -0.307278
  C       0.798623     -0.766053      0.475485
  C       1.988631     -1.054786     -0.411027
  C       2.589416     -0.097087     -1.117270
  C       2.225734      1.351493     -1.075444
  O       3.270540      2.161039     -0.580025
  C       2.401714     -2.491489     -0.502186
  C      -3.659147      0.556622      1.570159
  H      -1.386967      1.816942     -0.702686
  H      -3.073143      1.621475     -1.134254
  H      -2.634961      2.601773      0.255893
  H      -1.902550     -1.374660      1.270448
  H      -0.465628      0.009677     -1.075499
  H      -0.595177     -1.708058     -0.849239
  H       0.920316      0.185018      0.995418
  H       0.733528     -1.517548      1.268289
  H       3.427798     -0.357495     -1.755371
  H       1.303708      1.517016     -0.513196
  H       2.039299      1.731645     -2.082478
  H       3.545220      1.840197      0.280953
  H       3.217275     -2.645345     -1.208841
  H       2.710519     -2.901631      0.459834
  H       1.550333     -3.088647     -0.837316
  H      -3.930257     -0.426245      1.954594
  H      -4.541408      0.989470      1.095643
  H      -3.419283      1.193283      2.426470
29
Coordinates from ORCA-job ./output/geraniol/geraniol E -83.861982242211
  C      -2.436492      1.678558     -0.278376
  C      -2.532999      0.475902      0.608585
  C      -1.711993     -0.571428      0.566065
  C      -0.525753     -0.760355     -0.318628
  C       0.788853     -0.738882      0.466212
  C       1.982846     -1.034664     -0.410893
  C       2.615459     -0.092668     -1.111641
  C       2.310740      1.370101     -1.072930
  O       3.390914      2.126894     -0.568932
  C       2.368472     -2.473678     -0.507635
  C      -3.673480      0.530303      1.572719
  H      -1.476792      1.780733     -0.777056
  H      -3.201957      1.647815     -1.057637
  H      -2.608844      2.588655      0.298672
  H      -1.908220     -1.381371      1.263252
  H      -0.484058      0.000437     -1.096547
  H      -0.598919     -1.714740     -0.847827
  H       0.895121      0.222422      0.967994
  H       0.733616     -1.477912      1.268894
  H       3.451963     -0.378449     -1.741026
  H       1.397621      1.574067     -0.511722
  H       2.144391      1.755247     -2.079589
  H       3.653215      1.779058      0.284154
  H       3.166013     -2.641564     -1.229959
  H       2.693207     -2.879750      0.450725
  H       1.501976     -3.062699     -0.820173
  H      -3.828940     -0.418051      2.084596
  H      -4.599975      0.798136      1.060422
  H      -3.505985      1.297884      2.332324
29
Coordinates from ORCA-job ./output/geraniol/geraniol E -83.862694201807
  C      -2.474513      1.677361     -0.261375
  C      -2.555940      0.466228      0.613047
  C      -1.724223     -0.569031      0.561002
  C      -0.536809     -0.743364     -0.329129
  C       0.775916     -0.708304      0.455990
  C       1.969617     -1.011286     -0.408408
  C       2.641789     -0.090975     -1.097365
  C       2.393257      1.380305     -1.090546
  O       3.507579      2.098574     -0.595759
  C       2.333702     -2.456631     -0.504148
  C      -3.698972      0.489679      1.579001
  H      -1.536866      1.763378     -0.801875
  H      -3.283096      1.670843     -0.994210
  H      -2.598759      2.581364      0.335740
  H      -1.908726     -1.385109      1.253848
  H      -0.505295      0.014107     -1.110220
  H      -0.611545     -1.701805     -0.848742
  H       0.872995      0.260056      0.944962
  H       0.725617     -1.444447      1.260662
  H       3.481281     -0.409938     -1.706847
  H       1.491741      1.630371     -0.528323
  H       2.243684      1.741501     -2.107130
  H       3.751514      1.738126      0.256985
  H       3.135964     -2.628593     -1.217919
  H       2.648121     -2.846105      0.464917
  H       1.470490     -3.047971     -0.816307
  H      -3.781139     -0.437596      2.141449
  H      -4.642210      0.658466      1.056345
  H      -3.585176      1.310793      2.288401
29
Coordinates from ORCA-job ./output/geraniol/geraniol E -83.862852330987
  C      -2.471580      1.685155     -0.248079
  C      -2.560189      0.463384      0.612174
  C      -1.729430     -0.572667      0.551893
  C      -0.540649     -0.742719     -0.336566
  C       0.770704     -0.700441      0.448588
  C       1.964913     -1.007643     -0.410589
  C       2.647797     -0.090349     -1.091173
  C       2.405430      1.381200     -1.093303
  O       3.522859      2.099279     -0.602239
  C       2.327663     -2.456869     -0.499477
  C      -3.706705      0.477188      1.575562
  H      -1.556289      1.742581     -0.829211
  H      -3.314117      1.720430     -0.941052
  H      -2.533666      2.583658      0.367049
  H      -1.912035     -1.393529      1.240001
  H      -0.512100      0.013547     -1.118439
  H      -0.615083     -1.703092     -0.852577
  H       0.863482      0.273935      0.927079
  H       0.721373     -1.431505      1.258831
  H       3.488860     -0.413620     -1.696605
  H       1.505032      1.638664     -0.531605
  H       2.259138      1.734928     -2.113512
  H       3.767046      1.735337      0.249412
  H       3.135463     -2.630793     -1.206516
  H       2.636458     -2.835454      0.476127
  H       1.469263     -3.053659     -0.811380
  H      -3.748645     -0.430019      2.173915
  H      -4.654743      0.582008      1.044860
  H      -3.630247      1.331062      2.250875
29
Coordinates from ORCA-job ./output/geraniol/geraniol E -83.862908839502
  C      -2.466852      1.686864     -0.242543
  C      -2.564870      0.460888      0.611953
  C      -1.734717     -0.575952      0.549713
  C      -0.544909     -0.746487     -0.337309
  C       0.766487     -0.693557      0.446613
  C       1.961910     -1.004434     -0.409134
  C       2.652624     -0.088028     -1.082624
  C       2.414026      1.384114     -1.088929
  O       3.542480      2.104526     -0.625753
  C       2.320349     -2.456045     -0.497743
  C      -3.716178      0.468117      1.571013
  H      -1.563731      1.723289     -0.843855
  H      -3.324238      1.748175     -0.915204
  H      -2.491206      2.582522      0.379385
  H      -1.916478     -1.399042      1.235656
  H      -0.519514      0.005840     -1.123065
  H      -0.618249     -1.710562     -0.846813
  H       0.854742      0.287089      0.912767
  H       0.719552     -1.416485      1.264391
  H       3.493524     -0.412844     -1.687731
  H       1.526440      1.648569     -0.510756
  H       2.249145      1.730596     -2.108961
  H       3.803791      1.743120      0.222000
  H       3.131545     -2.630538     -1.200803
  H       2.624975     -2.830551      0.480822
  H       1.463309     -3.053440     -0.811436
  H      -3.750766     -0.439477      2.169487
  H      -4.663157      0.561204      1.036503
  H      -3.650035      1.322527      2.246399
29
Coordinates from ORCA-job ./output/geraniol/geraniol E -83.862942429381
  C      -2.443945      1.699898     -0.224557
  C      -2.561777      0.461389      0.609189
  C      -1.739516     -0.581542      0.538428
  C      -0.544473     -0.751541     -0.341545
  C       0.763660     -0.697171      0.447186
  C       1.962880     -1.007746     -0.404239
  C       2.649094     -0.089579     -1.080207
  C       2.395575      1.379799     -1.097303
  O       3.516631      2.118552     -0.644565
  C       2.328429     -2.458636     -0.485303
  C      -3.719121      0.464765      1.560740
  H      -1.558368      1.714317     -0.852123
  H      -3.317915      1.806568     -0.869671
  H      -2.416271      2.583083      0.415199
  H      -1.931360     -1.412673      1.211972
  H      -0.516256      0.000120     -1.127844
  H      -0.614665     -1.716154     -0.850455
  H       0.850886      0.284036      0.912289
  H       0.712874     -1.418428      1.266378
  H       3.494086     -0.410847     -1.681577
  H       1.506463      1.640834     -0.520172
  H       2.224948      1.715549     -2.120283
  H       3.785754      1.767987      0.205462
  H       3.149290     -2.630543     -1.177851
  H       2.622232     -2.829302      0.497913
  H       1.477718     -3.059644     -0.808534
  H      -3.753992     -0.445202      2.155785
  H      -4.662798      0.555210      1.019961
  H      -3.660064      1.316897      2.239767
29
Coordinates from ORCA-job ./output/geraniol/geraniol E -83.862969058886
  C      -2.416366      1.710865     -0.205246
  C      -2.558662      0.459762      0.604871
  C      -1.747838     -0.591345      0.524280
  C      -0.546671     -0.761573     -0.347702
  C       0.756933     -0.701649      0.448428
  C       1.962089     -1.009446     -0.396339
  C       2.643306     -0.089321     -1.075018
  C       2.375023      1.377265     -1.103744
  O       3.495434      2.133011     -0.679001
  C       2.337761     -2.457563     -0.468869
  C      -3.721917      0.462102      1.548856
  H      -1.545035      1.707601     -0.852564
  H      -3.299667      1.862795     -0.827984
  H      -2.343116      2.578210      0.452572
  H      -1.954057     -1.430922      1.182890
  H      -0.514984     -0.012191     -1.136269
  H      -0.611397     -1.727736     -0.854175
  H       0.839483      0.280589      0.912103
  H       0.703392     -1.420722      1.269213
  H       3.493052     -0.406408     -1.671830
  H       1.492983      1.636951     -0.515399
  H       2.183924      1.699522     -2.127500
  H       3.781590      1.798549      0.171868
  H       3.164296     -2.626382     -1.155405
  H       2.627419     -2.823257      0.517361
  H       1.492482     -3.064180     -0.796244
  H      -3.774277     -0.460061      2.123574
  H      -4.660387      0.577832      1.004017
  H      -3.654793      1.297704      2.247300
29
Coordinates from ORCA-job ./output/geraniol/geraniol E -83.862985121074
  C      -2.390538      1.719362     -0.187614
  C      -2.554179      0.457896      0.601378
  C      -1.755186     -0.601274      0.510937
  C      -0.548773     -0.770960     -0.354254
  C       0.750101     -0.707390      0.449746
  C       1.961105     -1.010352     -0.388633
  C       2.635807     -0.088740     -1.071962
  C       2.354525      1.375140     -1.112124
  O       3.473177      2.143853     -0.707986
  C       2.348510     -2.455056     -0.452480
  C      -3.722096      0.461657      1.539267
  H      -1.528360      1.706321     -0.847022
  H      -3.277542      1.906258     -0.795263
  H      -2.286214      2.571959      0.485317
  H      -1.976144     -1.448008      1.155293
  H      -0.513264     -0.022613     -1.143798
  H      -0.608117     -1.737701     -0.860057
  H       0.827405      0.274465      0.915227
  H       0.694236     -1.427033      1.269708
  H       3.489717     -0.402071     -1.664786
  H       1.476981      1.633402     -0.516423
  H       2.148566      1.685617     -2.136660
  H       3.770212      1.824145      0.144744
  H       3.181264     -2.620446     -1.132319
  H       2.633010     -2.817105      0.536524
  H       1.509513     -3.067786     -0.785229
  H      -3.797330     -0.472757      2.091183
  H      -4.654902      0.610912      0.992886
  H      -3.641485      1.278303      2.258442
29
Coordinates from ORCA-job ./output/geraniol/geraniol E -83.862990956527
  C      -2.378538      1.721730     -0.179930
  C      -2.551685      0.456061      0.600008
  C      -1.759203     -0.607470      0.504505
  C      -0.550825     -0.776577     -0.358183
  C       0.745857     -0.710001      0.449432
  C       1.959727     -1.009758     -0.385692
  C       2.631402     -0.087731     -1.071273
  C       2.345950      1.375266     -1.116098
  O       3.464847      2.147153     -0.719730
  C       2.353620     -2.452677     -0.444912
  C      -3.720989      0.462317      1.536063
  H      -1.517395      1.707175     -0.840699
  H      -3.264826      1.920508     -0.784788
  H      -2.266594      2.568548      0.499125
  H      -1.987594     -1.456842      1.142626
  H      -0.514189     -0.028909     -1.148327
  H      -0.607148     -1.743762     -0.863364
  H       0.819089      0.271994      0.915451
  H       0.689991     -1.430093      1.268937
  H       3.487153     -0.399457     -1.662296
  H       1.470597      1.633149     -0.516834
  H       2.134108      1.681562     -2.140646
  H       3.764784      1.833138      0.134057
  H       3.189016     -2.616600     -1.121836
  H       2.636288     -2.812433      0.545466
  H       1.518066     -3.069455     -0.779247
  H      -3.809096     -0.477044      2.077480
  H      -4.651029      0.630237      0.990387
  H      -3.631386      1.269971      2.264360
29
Coordinates from ORCA-job ./output/geraniol/geraniol E -83.862993435017
  C      -2.370119      1.723427     -0.174016
  C      -2.549647      0.454854      0.599806
  C      -1.761869     -0.611832      0.500453
  C      -0.552441     -0.780438     -0.360883
  C       0.743098     -0.711128      0.448463
  C       1.958593     -1.009133     -0.384650
  C       2.628589     -0.087126     -1.071693
  C       2.340999      1.375412     -1.119550
  O       3.459395      2.148893     -0.725107
  C       2.356562     -2.451199     -0.440375
  C      -3.720234      0.462668      1.534289
  H      -1.507958      1.709112     -0.833468
  H      -3.254880      1.928232     -0.779121
  H      -2.256275      2.566804      0.509011
  H      -1.995336     -1.462887      1.134409
  H      -0.515841     -0.033473     -1.151650
  H      -0.606741     -1.748165     -0.865201
  H       0.813316      0.271438      0.913862
  H       0.687634     -1.430981      1.268200
  H       3.485453     -0.398048     -1.661545
  H       1.465814      1.632820     -0.519730
  H       2.127946      1.679638     -2.144432
  H       3.758682      1.837734      0.129967
  H       3.193866     -2.614449     -1.115094
  H       2.637805     -2.808535      0.551316
  H       1.523589     -3.071201     -0.775286
  H      -3.814856     -0.478483      2.071409
  H      -4.648610      0.639343      0.988528
  H      -3.626536      1.266702      2.266131
29
Coordinates from ORCA-job ./output/geraniol/geraniol E -83.862994807392
  C      -2.362906      1.724578     -0.168782
  C      -2.548167      0.453737      0.600065
  C      -1.764218     -0.615509      0.497617
  C      -0.554011     -0.783895     -0.362680
  C       0.740962     -0.710997      0.447365
  C       1.957519     -1.008366     -0.384283
  C       2.626867     -0.086565     -1.072121
  C       2.338055      1.375714     -1.122223
  O       3.456176      2.150454     -0.729337
  C       2.357757     -2.450033     -0.437318
  C      -3.720169      0.462532      1.532822
  H      -1.498818      1.710431     -0.825737
  H      -3.245520      1.933660     -0.775596
  H      -2.248902      2.565371      0.517387
  H      -2.001678     -1.467929      1.128195
  H      -0.518229     -0.038132     -1.154617
  H      -0.606534     -1.752522     -0.865404
  H       0.808640      0.272733      0.910699
  H       0.686207     -1.429441      1.268385
  H       3.484482     -0.397103     -1.661116
  H       1.463087      1.633078     -0.522063
  H       2.124300      1.678417     -2.147398
  H       3.754797      1.841466      0.126772
  H       3.196472     -2.613099     -1.110320
  H       2.637857     -2.805101      0.555531
  H       1.526551     -3.072299     -0.772364
  H      -3.818926     -0.479771      2.067145
  H      -4.647189      0.644337      0.986444
  H      -3.624464      1.264255      2.266977
