! wB97X-3c OPT FREQ TightSCF
%pal
  nprocs 40
end
* xyz 0 1
C     -2.329289     0.383336     0.602142
C     -1.121681     0.242196    -0.357498
C     -0.001925     1.312503    -0.112247
C      0.372864     1.403730     1.382579
C      1.072824     0.060016     1.642869
C      1.094307    -0.593085     0.240314
C      1.240635     0.623240    -0.650822
C     -0.343994    -1.093766    -0.093483
O     -0.387555    -1.992768    -1.180462
C      2.206300    -1.638635     0.081595
C     -1.669504     0.375549    -1.802721
H     -2.707383     1.428129     0.595947
H     -3.154301    -0.291485     0.287392
H     -2.074538     0.099735     1.644167
H     -0.203550     2.304680    -0.571544
H     -0.487334     1.580958     2.057747
H      1.089553     2.241489     1.536259
H      2.103786     0.237713     2.022504
H      0.517768    -0.553176     2.385904
H      2.176879     1.197911    -0.454491
H      1.198726     0.393755    -1.735873
H     -0.756584    -1.639325     0.783888
H      0.157782    -1.628510    -1.922673
H      2.275344    -1.990330    -0.968638
H      2.001969    -2.508870     0.740422
H      3.189043    -1.202414     0.360588
H     -2.382682    -0.446815    -2.026150
H     -0.869247     0.353549    -2.568490
H     -2.208214     1.340689    -1.919224
*
