29
Coordinates from ORCA-job ./output/exo_fenchol/exo_fenchol E -83.904153399532
  C      -2.329289      0.383336      0.602142
  C      -1.121681      0.242196     -0.357498
  C      -0.001925      1.312503     -0.112247
  C       0.372864      1.403730      1.382579
  C       1.072824      0.060016      1.642869
  C       1.094307     -0.593085      0.240314
  C       1.240635      0.623240     -0.650822
  C      -0.343994     -1.093766     -0.093483
  O      -0.387555     -1.992768     -1.180462
  C       2.206300     -1.638635      0.081595
  C      -1.669504      0.375549     -1.802721
  H      -2.707383      1.428129      0.595947
  H      -3.154301     -0.291485      0.287392
  H      -2.074538      0.099735      1.644167
  H      -0.203550      2.304680     -0.571544
  H      -0.487334      1.580958      2.057747
  H       1.089553      2.241489      1.536259
  H       2.103786      0.237713      2.022504
  H       0.517768     -0.553176      2.385904
  H       2.176879      1.197911     -0.454491
  H       1.198726      0.393755     -1.735873
  H      -0.756584     -1.639325      0.783888
  H       0.157782     -1.628510     -1.922673
  H       2.275344     -1.990330     -0.968638
  H       2.001969     -2.508870      0.740422
  H       3.189043     -1.202414      0.360588
  H      -2.382682     -0.446815     -2.026150
  H      -0.869247      0.353549     -2.568490
  H      -2.208214      1.340689     -1.919224
29
Coordinates from ORCA-job ./output/exo_fenchol/exo_fenchol E -83.913678884846
  C      -2.293004      0.386385      0.605522
  C      -1.107690      0.255785     -0.350991
  C      -0.013051      1.325189     -0.118002
  C       0.348685      1.408185      1.366648
  C       1.053914      0.057204      1.621661
  C       1.107107     -0.595878      0.230508
  C       1.233394      0.632301     -0.661866
  C      -0.320222     -1.077115     -0.106067
  O      -0.370417     -1.983420     -1.181969
  C       2.191074     -1.651837      0.093500
  C      -1.651270      0.379992     -1.773348
  H      -2.684006      1.404968      0.597672
  H      -3.094873     -0.289751      0.305514
  H      -2.027363      0.125252      1.629426
  H      -0.238620      2.295748     -0.563574
  H      -0.506054      1.575712      2.018594
  H       1.038061      2.238669      1.526515
  H       2.060954      0.216508      2.006649
  H       0.512818     -0.560135      2.340675
  H       2.148531      1.197817     -0.476397
  H       1.190004      0.408120     -1.729699
  H      -0.730954     -1.622573      0.743676
  H       0.144691     -1.635382     -1.907877
  H       2.265509     -2.016036     -0.930117
  H       1.982846     -2.502173      0.744065
  H       3.158415     -1.232988      0.370617
  H      -2.336375     -0.436183     -1.995978
  H      -0.866847      0.376144     -2.529789
  H      -2.195259      1.319491     -1.875564
29
Coordinates from ORCA-job ./output/exo_fenchol/exo_fenchol E -83.914255817443
  C      -2.288342      0.375429      0.608402
  C      -1.105066      0.261242     -0.345317
  C      -0.011217      1.331123     -0.115952
  C       0.359675      1.418522      1.363298
  C       1.045088      0.058872      1.617621
  C       1.111412     -0.593521      0.227642
  C       1.234694      0.639399     -0.668139
  C      -0.313754     -1.069529     -0.112602
  O      -0.369007     -1.973538     -1.191604
  C       2.181682     -1.654152      0.104297
  C      -1.644256      0.378165     -1.765437
  H      -2.702177      1.383702      0.594959
  H      -3.076260     -0.316445      0.312201
  H      -2.018117      0.131254      1.633254
  H      -0.252567      2.296025     -0.559647
  H      -0.489639      1.600333      2.014904
  H       1.059319      2.239156      1.517968
  H       2.050225      0.197600      2.012507
  H       0.497030     -0.559636      2.328298
  H       2.150315      1.203546     -0.488238
  H       1.185349      0.415290     -1.734083
  H      -0.730713     -1.623329      0.727464
  H       0.124107     -1.619021     -1.931090
  H       2.254704     -2.037005     -0.911014
  H       1.971672     -2.495926      0.762759
  H       3.151381     -1.239833      0.376566
  H      -2.310560     -0.449214     -1.997373
  H      -0.858964      0.395105     -2.518942
  H      -2.206015      1.306384     -1.862701
29
Coordinates from ORCA-job ./output/exo_fenchol/exo_fenchol E -83.914458027363
  C      -2.275989      0.367384      0.616242
  C      -1.101785      0.263167     -0.345579
  C      -0.007021      1.332457     -0.120186
  C       0.362498      1.423994      1.357286
  C       1.032802      0.060427      1.615489
  C       1.115620     -0.593550      0.225833
  C       1.240114      0.641580     -0.672843
  C      -0.306499     -1.068284     -0.123700
  O      -0.358599     -1.969966     -1.206417
  C       2.178988     -1.656572      0.118630
  C      -1.649004      0.385105     -1.762376
  H      -2.717963      1.364329      0.589607
  H      -3.050236     -0.348051      0.339210
  H      -1.990435      0.153179      1.644254
  H      -0.261300      2.293563     -0.566341
  H      -0.488332      1.617091      2.005414
  H       1.069308      2.238948      1.511005
  H       2.035122      0.183957      2.025503
  H       0.475622     -0.560486      2.317768
  H       2.156430      1.205613     -0.493609
  H       1.191516      0.414969     -1.738191
  H      -0.730415     -1.632504      0.706981
  H       0.105025     -1.602560     -1.959311
  H       2.250211     -2.062585     -0.888334
  H       1.969021     -2.488831      0.790186
  H       3.152217     -1.243796      0.384113
  H      -2.304922     -0.448480     -2.002976
  H      -0.868164      0.422391     -2.520207
  H      -2.223831      1.307513     -1.847450
29
Coordinates from ORCA-job ./output/exo_fenchol/exo_fenchol E -83.914515912440
  C      -2.276327      0.361014      0.616021
  C      -1.100869      0.263213     -0.344948
  C      -0.005016      1.333430     -0.119184
  C       0.368324      1.427187      1.357304
  C       1.031282      0.062072      1.617169
  C       1.115804     -0.592875      0.226847
  C       1.240101      0.641944     -0.672962
  C      -0.305598     -1.068632     -0.124638
  O      -0.354949     -1.967982     -1.209596
  C       2.179220     -1.655828      0.122518
  C      -1.647943      0.386626     -1.762316
  H      -2.728460      1.353789      0.586411
  H      -3.044503     -0.361837      0.339737
  H      -1.990755      0.153256      1.645388
  H      -0.263387      2.293086     -0.567418
  H      -0.479668      1.628549      2.006887
  H       1.080659      2.238647      1.506682
  H       2.032774      0.178588      2.032439
  H       0.469799     -0.558764      2.316798
  H       2.157401      1.205421     -0.495644
  H       1.190088      0.413085     -1.738176
  H      -0.731431     -1.636401      0.703078
  H       0.083218     -1.587575     -1.971236
  H       2.243105     -2.074479     -0.880093
  H       1.974096     -2.481963      0.803979
  H       3.155295     -1.242531      0.377952
  H      -2.301294     -0.448365     -2.007020
  H      -0.865864      0.429412     -2.519448
  H      -2.225104      1.307915     -1.846529
29
Coordinates from ORCA-job ./output/exo_fenchol/exo_fenchol E -83.914562130294
  C      -2.273475      0.357322      0.616743
  C      -1.098938      0.262048     -0.346155
  C      -0.002637      1.332747     -0.120499
  C       0.368970      1.427487      1.356418
  C       1.029092      0.062606      1.618976
  C       1.116366     -0.593069      0.228198
  C       1.241833      0.640448     -0.671847
  C      -0.304058     -1.070470     -0.126226
  O      -0.348758     -1.967184     -1.213284
  C       2.182158     -1.654710      0.126488
  C      -1.648652      0.388430     -1.762776
  H      -2.733605      1.346490      0.583269
  H      -3.037022     -0.372308      0.344775
  H      -1.985385      0.156884      1.647026
  H      -0.262637      2.290955     -0.571318
  H      -0.478671      1.633832      2.005421
  H       1.083310      2.237917      1.503560
  H       2.028407      0.175670      2.040548
  H       0.463234     -0.558601      2.315191
  H       2.159434      1.203538     -0.494284
  H       1.193659      0.408925     -1.736747
  H      -0.731020     -1.640847      0.699041
  H       0.052666     -1.568007     -1.985590
  H       2.236957     -2.086089     -0.871296
  H       1.983446     -2.473325      0.819456
  H       3.160388     -1.239293      0.370216
  H      -2.302911     -0.445675     -2.008963
  H      -0.866952      0.434061     -2.520723
  H      -2.225202      1.310218     -1.845617
29
Coordinates from ORCA-job ./output/exo_fenchol/exo_fenchol E -83.914586956244
  C      -2.272829      0.356101      0.615560
  C      -1.097518      0.260672     -0.347064
  C      -0.001686      1.331963     -0.120846
  C       0.368336      1.426716      1.356646
  C       1.029201      0.062212      1.620324
  C       1.117179     -0.593232      0.229506
  C       1.243103      0.639298     -0.670169
  C      -0.302869     -1.071858     -0.125641
  O      -0.344752     -1.968655     -1.212352
  C       2.184951     -1.653463      0.127375
  C      -1.647426      0.387852     -1.763487
  H      -2.732765      1.345252      0.582154
  H      -3.036019     -0.373604      0.342905
  H      -1.985380      0.154635      1.645725
  H      -0.260796      2.289881     -0.572534
  H      -0.479035      1.634294      2.005484
  H       1.082580      2.237534      1.502649
  H       2.027117      0.175598      2.044571
  H       0.461125     -0.558893      2.314851
  H       2.160484      1.202462     -0.491976
  H       1.196766      0.406606     -1.734891
  H      -0.729359     -1.641672      0.700008
  H       0.023491     -1.555191     -1.993287
  H       2.231983     -2.090583     -0.868106
  H       1.991538     -2.467341      0.827455
  H       3.163936     -1.235402      0.362733
  H      -2.303136     -0.445171     -2.009451
  H      -0.865456      0.433799     -2.521302
  H      -2.222766      1.310192     -1.846838
29
Coordinates from ORCA-job ./output/exo_fenchol/exo_fenchol E -83.914599198032
  C      -2.272708      0.356492      0.614142
  C      -1.096585      0.259502     -0.347584
  C      -0.001648      1.331124     -0.120811
  C       0.366933      1.425672      1.357156
  C       1.030048      0.061623      1.620938
  C       1.118456     -0.593356      0.230427
  C       1.244270      0.638842     -0.669031
  C      -0.301657     -1.072492     -0.124620
  O      -0.342878     -1.971049     -1.209739
  C       2.186832     -1.652996      0.127221
  C      -1.645633      0.386305     -1.764237
  H      -2.729036      1.347163      0.581907
  H      -3.037563     -0.370694      0.339838
  H      -1.986320      0.151729      1.643869
  H      -0.259358      2.289460     -0.572036
  H      -0.480851      1.631701      2.005773
  H       1.079809      2.237534      1.503457
  H       2.027438      0.177324      2.045357
  H       0.461714     -0.559238      2.315303
  H       2.161030      1.202672     -0.490169
  H       1.199268      0.406053     -1.733700
  H      -0.727449     -1.640504      0.702498
  H       0.000846     -1.549148     -1.997230
  H       2.229885     -2.090354     -0.868113
  H       1.995893     -2.465339      0.829567
  H       3.165561     -1.232898      0.359435
  H      -2.301970     -0.446296     -2.009743
  H      -0.863458      0.432640     -2.521788
  H      -2.220869      1.308526     -1.848087
29
Coordinates from ORCA-job ./output/exo_fenchol/exo_fenchol E -83.914603518686
  C      -2.273178      0.357051      0.612931
  C      -1.096225      0.258849     -0.347549
  C      -0.002007      1.330623     -0.120396
  C       0.366231      1.425164      1.357684
  C       1.031157      0.061459      1.621121
  C       1.119514     -0.593320      0.230966
  C       1.244799      0.639041     -0.668606
  C      -0.300836     -1.072519     -0.123543
  O      -0.342564     -1.973042     -1.207040
  C       2.187389     -1.653172      0.126736
  C      -1.643967      0.384965     -1.764754
  H      -2.726434      1.349075      0.581393
  H      -3.039536     -0.367942      0.337256
  H      -1.987824      0.150022      1.642455
  H      -0.258990      2.289502     -0.570785
  H      -0.482045      1.629082      2.006233
  H       1.077861      2.237877      1.504723
  H       2.028851      0.179297      2.044183
  H       0.463914     -0.559201      2.316428
  H       2.160966      1.203727     -0.489546
  H       1.200086      0.406503     -1.733259
  H      -0.726220     -1.639024      0.704843
  H      -0.011500     -1.548176     -1.998321
  H       2.230052     -2.087908     -0.869659
  H       1.996326     -2.466445      0.827779
  H       3.165640     -1.232512      0.359891
  H      -2.300155     -0.447730     -2.010322
  H      -0.861514      0.431970     -2.521933
  H      -2.219790      1.306782     -1.848908
29
Coordinates from ORCA-job ./output/exo_fenchol/exo_fenchol E -83.914604534135
  C      -2.273611      0.357244      0.612342
  C      -1.096165      0.258667     -0.347378
  C      -0.002188      1.330478     -0.120092
  C       0.366127      1.425102      1.357965
  C       1.031913      0.061658      1.621163
  C       1.119990     -0.593216      0.231191
  C       1.244919      0.639320     -0.668557
  C      -0.300543     -1.072376     -0.122894
  O      -0.342815     -1.973956     -1.205535
  C       2.187307     -1.653439      0.126447
  C      -1.643172      0.384426     -1.764990
  H      -2.725957      1.349692      0.580652
  H      -3.040412     -0.367140      0.336318
  H      -1.988720      0.149967      1.641953
  H      -0.259086      2.289618     -0.570071
  H      -0.482533      1.627700      2.006442
  H       1.077068      2.238253      1.505606
  H       2.030090      0.180521      2.042912
  H       0.465885     -0.559009      2.317425
  H       2.160788      1.204512     -0.489534
  H       1.200060      0.406824     -1.733186
  H      -0.725857     -1.638247      0.706024
  H      -0.015599     -1.548883     -1.998325
  H       2.231236     -2.085733     -0.870947
  H       1.995086     -2.468238      0.825340
  H       3.165280     -1.233240      0.361763
  H      -2.299212     -0.448352     -2.010781
  H      -0.860562      0.431787     -2.521984
  H      -2.219318      1.306060     -1.849270
