39
Coordinates from ORCA-job ./output/alpha_guaiene/alpha_guaiene E -99.922267453360
  C      -0.497378      2.641507     -1.107351
  C      -0.882527      2.026226      0.246119
  C       0.290137      2.021168      1.247979
  C       1.587249      1.346750      0.756707
  C       1.415566     -0.069161      0.154546
  C       0.291363     -0.872248      0.836497
  C      -1.068510     -0.542222      0.261152
  C      -1.579246      0.684105      0.067935
  C      -2.960803      0.610095     -0.497032
  C      -3.341189     -0.864324     -0.395036
  C      -2.021942     -1.613880     -0.171745
  C      -1.534116     -2.289874     -1.459639
  C       2.738081     -0.824770      0.213421
  C       3.435544     -1.061357     -0.909190
  C       3.307862     -1.288110      1.531142
  H       0.035905      3.603908     -0.954487
  H      -1.409535      2.851220     -1.704955
  H       0.151805      1.961166     -1.693735
  H      -1.643396      2.707136      0.688685
  H      -0.043624      1.557774      2.201216
  H       0.537414      3.075720      1.501372
  H       2.277580      1.310615      1.627401
  H       2.075413      1.998752     -0.000256
  H       1.133199      0.046956     -0.915464
  H       0.474708     -1.960347      0.700493
  H       0.283296     -0.699411      1.933103
  H      -2.950100      0.930026     -1.561079
  H      -3.662878      1.244998      0.085123
  H      -3.887056     -1.202814     -1.303344
  H      -4.002474     -1.012945      0.487379
  H      -2.139401     -2.374347      0.631462
  H      -1.394937     -1.540631     -2.269176
  H      -0.569229     -2.809873     -1.283795
  H      -2.275632     -3.046374     -1.793418
  H       3.073442     -0.732653     -1.878448
  H       4.384318     -1.588790     -0.872471
  H       2.652433     -1.003650      2.379731
  H       3.413598     -2.393530      1.525957
  H       4.305061     -0.826812      1.693199
39
Coordinates from ORCA-job ./output/alpha_guaiene/alpha_guaiene E -99.931800177777
  C      -0.487300      2.635370     -1.095032
  C      -0.876729      2.016836      0.246613
  C       0.285148      1.991438      1.238127
  C       1.575296      1.326817      0.757333
  C       1.418066     -0.072600      0.148474
  C       0.296036     -0.874157      0.816104
  C      -1.060162     -0.531927      0.266450
  C      -1.560179      0.688566      0.062772
  C      -2.946802      0.623879     -0.506834
  C      -3.334660     -0.852908     -0.379681
  C      -2.015804     -1.609357     -0.167080
  C      -1.528557     -2.295900     -1.441173
  C       2.732590     -0.809603      0.197113
  C       3.419057     -1.047543     -0.917639
  C       3.279216     -1.257983      1.528955
  H       0.031862      3.582449     -0.941094
  H      -1.374453      2.838205     -1.694322
  H       0.161112      1.974218     -1.668571
  H      -1.627989      2.684669      0.686309
  H      -0.053168      1.520906      2.163494
  H       0.525937      3.023956      1.504787
  H       2.251271      1.279996      1.615278
  H       2.065213      1.968765      0.022903
  H       1.145842      0.042228     -0.901047
  H       0.474033     -1.940897      0.665248
  H       0.301704     -0.723445      1.898093
  H      -2.944395      0.941424     -1.553879
  H      -3.632048      1.269329      0.046673
  H      -3.880947     -1.203339     -1.254913
  H      -3.978738     -0.988916      0.490094
  H      -2.125049     -2.363826      0.618568
  H      -1.401224     -1.566452     -2.241915
  H      -0.573310     -2.797137     -1.278286
  H      -2.248248     -3.048263     -1.766434
  H       3.048813     -0.733052     -1.884634
  H       4.369275     -1.566607     -0.886571
  H       2.626557     -0.974036      2.353043
  H       3.387487     -2.341406      1.545906
  H       4.255248     -0.809699      1.706769
39
Coordinates from ORCA-job ./output/alpha_guaiene/alpha_guaiene E -99.932860647989
  C      -0.478325      2.645410     -1.087279
  C      -0.876430      2.016139      0.245326
  C       0.277190      1.977540      1.240809
  C       1.567422      1.317900      0.769491
  C       1.421661     -0.075042      0.147982
  C       0.298684     -0.887146      0.799030
  C      -1.059273     -0.529108      0.271542
  C      -1.548091      0.689261      0.048586
  C      -2.935511      0.626844     -0.529025
  C      -3.335956     -0.843840     -0.366133
  C      -2.020337     -1.607289     -0.160328
  C      -1.537750     -2.302742     -1.428147
  C       2.738138     -0.802055      0.186859
  C       3.414731     -1.049092     -0.927352
  C       3.278007     -1.233938      1.526898
  H       0.016765      3.602271     -0.925183
  H      -1.354119      2.827851     -1.706575
  H       0.196695      2.002173     -1.647763
  H      -1.631405      2.676470      0.684965
  H      -0.072516      1.493197      2.152949
  H       0.515304      3.004522      1.524317
  H       2.234918      1.260596      1.631060
  H       2.070101      1.962197      0.047900
  H       1.152875      0.045090     -0.900363
  H       0.473720     -1.947976      0.619228
  H       0.315829     -0.767099      1.883561
  H      -2.933038      0.930630     -1.578095
  H      -3.616699      1.295457     -0.001705
  H      -3.897028     -1.214148     -1.221825
  H      -3.968449     -0.957817      0.512425
  H      -2.127889     -2.361703      0.623120
  H      -1.431226     -1.582514     -2.238810
  H      -0.573067     -2.785181     -1.276983
  H      -2.245686     -3.069756     -1.739205
  H       3.034809     -0.748693     -1.894910
  H       4.368808     -1.561407     -0.902552
  H       2.626501     -0.939261      2.345249
  H       3.385365     -2.315694      1.563911
  H       4.255274     -0.792052      1.707025
39
Coordinates from ORCA-job ./output/alpha_guaiene/alpha_guaiene E -99.933309881159
  C      -0.473778      2.664629     -1.083209
  C      -0.876988      2.017805      0.238820
  C       0.269233      1.969762      1.242284
  C       1.562343      1.314627      0.781431
  C       1.428243     -0.074408      0.149021
  C       0.304514     -0.900317      0.780660
  C      -1.054907     -0.528553      0.269894
  C      -1.535680      0.687763      0.027417
  C      -2.922752      0.621715     -0.555679
  C      -3.336716     -0.836940     -0.344049
  C      -2.024431     -1.606942     -0.152021
  C      -1.558908     -2.309265     -1.420429
  C       2.748662     -0.795543      0.183443
  C       3.422150     -1.046388     -0.930043
  C       3.278375     -1.223355      1.528479
  H      -0.012813      3.637302     -0.910335
  H      -1.339647      2.819223     -1.724733
  H       0.236017      2.046721     -1.630322
  H      -1.639929      2.667323      0.680820
  H      -0.092710      1.471276      2.142954
  H       0.504085      2.993212      1.542892
  H       2.221325      1.249718      1.649500
  H       2.078868      1.961611      0.070746
  H       1.163424      0.050955     -0.901239
  H       0.478838     -1.955540      0.568028
  H       0.329837     -0.814687      1.869669
  H      -2.918271      0.899887     -1.612516
  H      -3.600833      1.318698     -0.059866
  H      -3.924552     -1.231315     -1.171978
  H      -3.947506     -0.919695      0.553902
  H      -2.126547     -2.360908      0.633564
  H      -1.483973     -1.598010     -2.243935
  H      -0.580882     -2.771451     -1.291186
  H      -2.258142     -3.093487     -1.709546
  H       3.040010     -0.749440     -1.898007
  H       4.377627     -1.556507     -0.910462
  H       2.626272     -0.919926      2.343301
  H       3.379425     -2.306343      1.576862
  H       4.260715     -0.793207      1.715866
39
Coordinates from ORCA-job ./output/alpha_guaiene/alpha_guaiene E -99.933440815055
  C      -0.469579      2.673078     -1.083943
  C      -0.876294      2.017200      0.231948
  C       0.264231      1.966940      1.242770
  C       1.560702      1.314512      0.788906
  C       1.432548     -0.072211      0.150634
  C       0.308887     -0.907825      0.769534
  C      -1.051191     -0.530887      0.264625
  C      -1.529753      0.684864      0.013708
  C      -2.915933      0.614630     -0.570945
  C      -3.337972     -0.834077     -0.324854
  C      -2.027120     -1.608344     -0.147922
  C      -1.579729     -2.309351     -1.423313
  C       2.755355     -0.791667      0.186877
  C       3.431485     -1.039384     -0.925952
  C       3.281137     -1.221166      1.532375
  H      -0.031733      3.655840     -0.905489
  H      -1.329257      2.808578     -1.738770
  H       0.261933      2.071044     -1.621225
  H      -1.644982      2.660229      0.674264
  H      -0.104797      1.462034      2.137592
  H       0.496110      2.989029      1.551549
  H       2.213840      1.246892      1.661820
  H       2.084288      1.963190      0.084194
  H       1.171541      0.056941     -0.900910
  H       0.484551     -1.958995      0.536629
  H       0.335640     -0.843247      1.860652
  H      -2.907269      0.869003     -1.634514
  H      -3.592013      1.329460     -0.096826
  H      -3.949660     -1.241720     -1.129510
  H      -3.926578     -0.893497      0.590374
  H      -2.122336     -2.362715      0.638739
  H      -1.528092     -1.600466     -2.251338
  H      -0.593892     -2.761003     -1.314068
  H      -2.276494     -3.101485     -1.698135
  H       3.051391     -0.739343     -1.893945
  H       4.387610     -1.548427     -0.908084
  H       2.631801     -0.910231      2.347068
  H       3.373037     -2.305425      1.584552
  H       4.268588     -0.802001      1.720930
39
Coordinates from ORCA-job ./output/alpha_guaiene/alpha_guaiene E -99.933523722285
  C      -0.464717      2.675150     -1.088057
  C      -0.875061      2.015236      0.223974
  C       0.259421      1.966090      1.242341
  C       1.559878      1.316384      0.795220
  C       1.436535     -0.068114      0.152203
  C       0.313632     -0.912645      0.760087
  C      -1.047406     -0.534060      0.259049
  C      -1.526168      0.681328      0.003277
  C      -2.911427      0.606024     -0.581905
  C      -3.338996     -0.833207     -0.302660
  C      -2.028392     -1.610717     -0.144535
  C      -1.599792     -2.304533     -1.430492
  C       2.760968     -0.786364      0.192867
  C       3.443032     -1.026520     -0.918622
  C       3.281254     -1.225130      1.536858
  H      -0.046433      3.666152     -0.907263
  H      -1.319235      2.793337     -1.753336
  H       0.283887      2.085128     -1.615533
  H      -1.648855      2.653747      0.664592
  H      -0.114960      1.457716      2.133244
  H       0.487582      2.987805      1.555636
  H       2.207363      1.247974      1.672585
  H       2.087951      1.966869      0.095269
  H       1.179952      0.064396     -0.900233
  H       0.491649     -1.959717      0.509496
  H       0.339932     -0.865907      1.852424
  H      -2.896301      0.832737     -1.652195
  H      -3.586384      1.336055     -0.129350
  H      -3.976895     -1.251094     -1.081583
  H      -3.900409     -0.869642      0.631247
  H      -2.114344     -2.367187      0.641277
  H      -1.569491     -1.593619     -2.257985
  H      -0.607983     -2.748257     -1.341887
  H      -2.295690     -3.101171     -1.695126
  H       3.067393     -0.720101     -1.886440
  H       4.399263     -1.535377     -0.900755
  H       2.638419     -0.903112      2.352810
  H       3.354181     -2.311152      1.588898
  H       4.276646     -0.824500      1.724601
39
Coordinates from ORCA-job ./output/alpha_guaiene/alpha_guaiene E -99.933575522076
  C      -0.461045      2.672153     -1.092470
  C      -0.874097      2.012744      0.218549
  C       0.256212      1.965530      1.241709
  C       1.559493      1.317568      0.798865
  C       1.438948     -0.065340      0.152807
  C       0.316535     -0.914939      0.754056
  C      -1.045393     -0.536759      0.255238
  C      -1.525412      0.678502     -0.001315
  C      -2.910425      0.599696     -0.586280
  C      -3.339872     -0.834040     -0.285728
  C      -2.028794     -1.613092     -0.143419
  C      -1.612327     -2.297489     -1.438714
  C       2.764092     -0.782409      0.197848
  C       3.452578     -1.014802     -0.911767
  C       3.280046     -1.228851      1.540621
  H      -0.052136      3.667055     -0.912039
  H      -1.313170      2.781132     -1.762386
  H       0.295118      2.086843     -1.614233
  H      -1.650551      2.649962      0.656654
  H      -0.120711      1.456400      2.131052
  H       0.481664      2.987491      1.556014
  H       2.203351      1.249235      1.678895
  H       2.089091      1.969627      0.101675
  H       1.186035      0.069308     -0.900057
  H       0.496261     -1.959327      0.493019
  H       0.341639     -0.878346      1.846749
  H      -2.889274      0.805083     -1.660929
  H      -3.585428      1.338258     -0.148438
  H      -3.997348     -1.256759     -1.045391
  H      -3.879124     -0.855410      0.661841
  H      -2.107048     -2.372947      0.639685
  H      -1.594147     -1.581551     -2.261996
  H      -0.617778     -2.737621     -1.363651
  H      -2.308500     -3.094844     -1.700315
  H       3.080989     -0.703931     -1.879729
  H       4.409923     -1.521470     -0.891884
  H       2.650224     -0.886531      2.358568
  H       3.323770     -2.316237      1.596407
  H       4.286613     -0.853893      1.720489
39
Coordinates from ORCA-job ./output/alpha_guaiene/alpha_guaiene E -99.933666206130
  C      -0.458632      2.665511     -1.100156
  C      -0.873830      2.009675      0.211626
  C       0.252244      1.966696      1.239372
  C       1.559018      1.321220      0.801148
  C       1.442354     -0.060627      0.152957
  C       0.320910     -0.915498      0.747621
  C      -1.042656     -0.539644      0.251731
  C      -1.525713      0.675021     -0.004426
  C      -2.910864      0.590728     -0.588790
  C      -3.339840     -0.837357     -0.262717
  C      -2.027466     -1.616727     -0.141653
  C      -1.624065     -2.286374     -1.449256
  C       2.768416     -0.775294      0.204344
  C       3.469457     -0.991426     -0.901115
  C       3.272234     -1.242236      1.544463
  H      -0.057328      3.663782     -0.922402
  H      -1.309658      2.765516     -1.772725
  H       0.302703      2.082720     -1.616648
  H      -1.652779      2.646761      0.645596
  H      -0.126032      1.458212      2.128283
  H       0.474075      2.989670      1.552482
  H       2.199404      1.254875      1.683541
  H       2.088274      1.975241      0.105886
  H       1.194182      0.075416     -0.900442
  H       0.502972     -1.956881      0.475958
  H       0.344494     -0.888830      1.840442
  H      -2.880990      0.767457     -1.668383
  H      -3.587446      1.337787     -0.169654
  H      -4.022081     -1.264932     -0.997032
  H      -3.848980     -0.840762      0.701803
  H      -2.095036     -2.382241      0.636429
  H      -1.618066     -1.561680     -2.264533
  H      -0.627126     -2.723100     -1.389035
  H      -2.320680     -3.083225     -1.710575
  H       3.106277     -0.670842     -1.869061
  H       4.428606     -1.494401     -0.876646
  H       2.675977     -0.853681      2.366901
  H       3.244947     -2.329636      1.608312
  H       4.302725     -0.930894      1.706351
39
Coordinates from ORCA-job ./output/alpha_guaiene/alpha_guaiene E -99.933926177000
  C      -0.455906      2.645540     -1.121131
  C      -0.874560      2.001289      0.194644
  C       0.242391      1.970680      1.231735
  C       1.557723      1.332106      0.803172
  C       1.451066     -0.048312      0.152081
  C       0.332451     -0.914893      0.732171
  C      -1.035712     -0.547050      0.243485
  C      -1.528283      0.665746     -0.009293
  C      -2.914305      0.566297     -0.591370
  C      -3.337211     -0.848461     -0.204587
  C      -2.022314     -1.627050     -0.138007
  C      -1.649875     -2.256108     -1.476164
  C       2.779461     -0.755613      0.221841
  C       3.519276     -0.920867     -0.868071
  C       3.245302     -1.284416      1.551791
  H      -0.068199      3.650057     -0.952184
  H      -1.306939      2.727003     -1.795676
  H       0.312652      2.065106     -1.627763
  H      -1.658657      2.639486      0.617706
  H      -0.136682      1.465388      2.121404
  H       0.455102      2.996862      1.539158
  H       2.191529      1.273352      1.689859
  H       2.082532      1.991007      0.110256
  H       1.215536      0.089595     -0.902771
  H       0.520386     -1.948969      0.436757
  H       0.352273     -0.909931      1.824777
  H      -2.860879      0.669092     -1.679630
  H      -3.597270      1.329491     -0.219008
  H      -4.078827     -1.284609     -0.872061
  H      -3.766730     -0.807947      0.797575
  H      -2.062905     -2.407995      0.625020
  H      -1.668841     -1.506980     -2.267301
  H      -0.649209     -2.686622     -1.449713
  H      -2.348819     -3.048935     -1.741374
  H       3.181547     -0.571838     -1.835264
  H       4.484916     -1.409894     -0.827334
  H       2.795707     -0.752195      2.386991
  H       2.976735     -2.335147      1.655330
  H       4.325542     -1.204265      1.642947
39
Coordinates from ORCA-job ./output/alpha_guaiene/alpha_guaiene E -99.934204771545
  C      -0.459393      2.636892     -1.128038
  C      -0.876048      1.999612      0.191995
  C       0.241616      1.974113      1.227672
  C       1.558219      1.337301      0.798096
  C       1.453181     -0.044613      0.149745
  C       0.335166     -0.910435      0.730759
  C      -1.034513     -0.547702      0.242352
  C      -1.531709      0.664435     -0.005328
  C      -2.919779      0.562118     -0.583501
  C      -3.335896     -0.855654     -0.195735
  C      -2.018585     -1.630578     -0.137400
  C      -1.645567     -2.250854     -1.480266
  C       2.782036     -0.749140      0.225776
  C       3.539785     -0.889684     -0.855523
  C       3.228452     -1.306958      1.549242
  H      -0.064611      3.639079     -0.963787
  H      -1.315049      2.722028     -1.795815
  H       0.301039      2.049569     -1.637985
  H      -1.659119      2.640832      0.612077
  H      -0.133621      1.472478      2.120566
  H       0.452717      3.002009      1.529541
  H       2.193476      1.283593      1.683376
  H       2.077152      1.997106      0.102242
  H       1.220684      0.091400     -0.905420
  H       0.524175     -1.944612      0.436756
  H       0.353564     -0.902855      1.823035
  H      -2.861597      0.654361     -1.672146
  H      -3.606251      1.321873     -0.213174
  H      -4.085579     -1.289736     -0.854747
  H      -3.752407     -0.812961      0.811730
  H      -2.053696     -2.414417      0.622271
  H      -1.659489     -1.495078     -2.264275
  H      -0.646873     -2.685000     -1.451869
  H      -2.346641     -3.039107     -1.752096
  H       3.214358     -0.526144     -1.821563
  H       4.507610     -1.373144     -0.806228
  H       2.872280     -0.712178      2.387510
  H       2.838332     -2.315532      1.680330
  H       4.312582     -1.352418      1.599824
39
Coordinates from ORCA-job ./output/alpha_guaiene/alpha_guaiene E -99.935066174769
  C      -0.477409      2.634632     -1.122101
  C      -0.881621      2.004764      0.207222
  C       0.251780      1.978094      1.223861
  C       1.560291      1.338237      0.777407
  C       1.449100     -0.051261      0.142554
  C       0.329177     -0.898403      0.745901
  C      -1.039730     -0.540207      0.251340
  C      -1.539121      0.671632      0.015199
  C      -2.932949      0.579267     -0.554510
  C      -3.335445     -0.864968     -0.240565
  C      -2.012733     -1.628862     -0.140888
  C      -1.594702     -2.272293     -1.459610
  C       2.778439     -0.753007      0.213544
  C       3.547986     -0.873287     -0.860741
  C       3.204792     -1.324746      1.533711
  H      -0.041401      3.620055     -0.962773
  H      -1.347040      2.756861     -1.764752
  H       0.245458      2.022234     -1.655665
  H      -1.653421      2.655198      0.632230
  H      -0.108906      1.483230      2.125922
  H       0.470012      3.007131      1.515616
  H       2.210061      1.291034      1.651390
  H       2.065354      1.994563      0.068752
  H       1.209658      0.075246     -0.912017
  H       0.512948     -1.942372      0.488474
  H       0.349772     -0.853096      1.837007
  H      -2.891620      0.734600     -1.635599
  H      -3.622080      1.307721     -0.131686
  H      -4.037633     -1.281563     -0.959654
  H      -3.813715     -0.874043      0.738984
  H      -2.064368     -2.404832      0.625686
  H      -1.560082     -1.525287     -2.250676
  H      -0.607698     -2.724838     -1.380491
  H      -2.296637     -3.052381     -1.750369
  H       3.230816     -0.498236     -1.825270
  H       4.517124     -1.352006     -0.804185
  H       2.981122     -0.654494      2.361560
  H       2.673145     -2.256258      1.723235
  H       4.271277     -1.528057      1.531955
39
Coordinates from ORCA-job ./output/alpha_guaiene/alpha_guaiene E -99.935649609537
  C      -0.485249      2.644840     -1.114004
  C      -0.886547      2.007360      0.213038
  C       0.251372      1.975150      1.224839
  C       1.556579      1.335808      0.774486
  C       1.448217     -0.057212      0.143968
  C       0.328085     -0.902561      0.749784
  C      -1.040072     -0.538605      0.257607
  C      -1.536194      0.671876      0.014483
  C      -2.927014      0.579850     -0.562876
  C      -3.333245     -0.863215     -0.253156
  C      -2.012343     -1.627106     -0.140217
  C      -1.587234     -2.285623     -1.447858
  C       2.782603     -0.753998      0.207491
  C       3.552095     -0.863147     -0.866955
  C       3.202852     -1.323699      1.528650
  H      -0.049593      3.630423     -0.950996
  H      -1.353086      2.769153     -1.759338
  H       0.240326      2.036019     -1.649571
  H      -1.657498      2.655179      0.643150
  H      -0.109263      1.474782      2.124670
  H       0.472136      3.002446      1.522409
  H       2.211007      1.289195      1.645675
  H       2.062636      1.989557      0.063221
  H       1.204242      0.066451     -0.911296
  H       0.508725     -1.947886      0.496137
  H       0.355389     -0.854981      1.841554
  H      -2.893881      0.755632     -1.641621
  H      -3.615176      1.308399     -0.135559
  H      -4.019403     -1.283368     -0.986559
  H      -3.833560     -0.880861      0.715285
  H      -2.071465     -2.400142      0.629870
  H      -1.549494     -1.548633     -2.249729
  H      -0.599599     -2.736383     -1.361743
  H      -2.285546     -3.071254     -1.734140
  H       3.233156     -0.482079     -1.828750
  H       4.523994     -1.336745     -0.816061
  H       3.084018     -0.606143      2.338946
  H       2.586585     -2.187329      1.777900
  H       4.241443     -1.641152      1.497263
39
Coordinates from ORCA-job ./output/alpha_guaiene/alpha_guaiene E -99.935843286274
  C      -0.488114      2.662344     -1.098885
  C      -0.889711      2.010929      0.221291
  C       0.251032      1.970592      1.231861
  C       1.552376      1.328818      0.778678
  C       1.442175     -0.066327      0.150929
  C       0.321544     -0.909406      0.760690
  C      -1.042772     -0.537825      0.263441
  C      -1.532062      0.672951      0.009623
  C      -2.917609      0.585046     -0.576967
  C      -3.332287     -0.856106     -0.284110
  C      -2.015531     -1.622806     -0.141871
  C      -1.582264     -2.304338     -1.433031
  C       2.780129     -0.763677      0.200029
  C       3.527608     -0.886460     -0.887931
  C       3.227235     -1.299946      1.526627
  H      -0.056849      3.649227     -0.926609
  H      -1.350472      2.788059     -1.752457
  H       0.246228      2.061705     -1.634153
  H      -1.661923      2.652609      0.659191
  H      -0.113604      1.463596      2.127517
  H       0.476110      2.994930      1.538823
  H       2.209912      1.279194      1.648920
  H       2.064572      1.978096      0.066278
  H       1.189220      0.056763     -0.903869
  H       0.498965     -1.957405      0.513856
  H       0.353093     -0.857345      1.853039
  H      -2.897499      0.796738     -1.650077
  H      -3.601533      1.312871     -0.135685
  H      -3.985251     -1.278712     -1.047877
  H      -3.874708     -0.889192      0.661080
  H      -2.090069     -2.387703      0.636889
  H      -1.543724     -1.584689     -2.252425
  H      -0.592621     -2.751455     -1.339560
  H      -2.276736     -3.098205     -1.708843
  H       3.191286     -0.512162     -1.846630
  H       4.499361     -1.362766     -0.856057
  H       3.126946     -0.558941      2.318855
  H       2.621413     -2.157941      1.818934
  H       4.266134     -1.621060      1.490483
39
Coordinates from ORCA-job ./output/alpha_guaiene/alpha_guaiene E -99.935878584455
  C      -0.488008      2.663527     -1.104369
  C      -0.891178      2.009935      0.213478
  C       0.245070      1.974659      1.230229
  C       1.550528      1.336274      0.782404
  C       1.444865     -0.059055      0.154911
  C       0.326777     -0.908774      0.759482
  C      -1.038107     -0.540281      0.261661
  C      -1.529969      0.669232      0.001900
  C      -2.913693      0.574061     -0.585395
  C      -3.329636     -0.860157     -0.270536
  C      -2.011806     -1.626381     -0.136993
  C      -1.590842     -2.303104     -1.434734
  C       2.784249     -0.755585      0.207103
  C       3.541700     -0.855294     -0.877166
  C       3.219313     -1.323388      1.523046
  H      -0.071063      3.656502     -0.931200
  H      -1.346779      2.776039     -1.765338
  H       0.258727      2.071450     -1.632315
  H      -1.668890      2.646527      0.649929
  H      -0.122619      1.466154      2.123957
  H       0.465715      2.999542      1.538919
  H       2.204642      1.290688      1.655540
  H       2.064018      1.985498      0.070780
  H       1.193976      0.064394     -0.900291
  H       0.507611     -1.954401      0.503186
  H       0.357749     -0.866162      1.852424
  H      -2.890109      0.767673     -1.662211
  H      -3.597752      1.310707     -0.158325
  H      -3.994911     -1.291712     -1.018811
  H      -3.856818     -0.878370      0.684018
  H      -2.079504     -2.391120      0.642653
  H      -1.569783     -1.583381     -2.254772
  H      -0.596011     -2.742307     -1.356489
  H      -2.283456     -3.101759     -1.701942
  H       3.213206     -0.460854     -1.830566
  H       4.513264     -1.332228     -0.848366
  H       3.247977     -0.561984      2.302143
  H       2.524473     -2.093167      1.860968
  H       4.207076     -1.773398      1.451085
39
Coordinates from ORCA-job ./output/alpha_guaiene/alpha_guaiene E -99.935937495446
  C      -0.484787      2.661668     -1.102264
  C      -0.889277      2.009145      0.215622
  C       0.246308      1.972816      1.232616
  C       1.551580      1.333256      0.784806
  C       1.443054     -0.059936      0.154243
  C       0.324289     -0.908040      0.760127
  C      -1.040182     -0.540266      0.260633
  C      -1.531410      0.670183      0.004088
  C      -2.915955      0.578277     -0.581832
  C      -3.331390     -0.859339     -0.277519
  C      -2.013472     -1.625836     -0.139570
  C      -1.588256     -2.302694     -1.436156
  C       2.780155     -0.758905      0.205316
  C       3.530297     -0.872820     -0.882724
  C       3.226966     -1.310149      1.524898
  H      -0.064264      3.652864     -0.928854
  H      -1.344096      2.777638     -1.761574
  H       0.258756      2.067143     -1.631406
  H      -1.666040      2.646922      0.651783
  H      -0.121431      1.465425      2.126640
  H       0.467415      2.997607      1.540564
  H       2.204333      1.284503      1.658649
  H       2.065945      1.983572      0.075137
  H       1.191864      0.065333     -0.900231
  H       0.505131     -1.954124      0.506578
  H       0.353263     -0.862373      1.852681
  H      -2.892616      0.777532     -1.657435
  H      -3.599431      1.310999     -0.148275
  H      -3.991262     -1.286699     -1.032368
  H      -3.864198     -0.883106      0.673600
  H      -2.083539     -2.389764      0.640223
  H      -1.563359     -1.582236     -2.255040
  H      -0.594583     -2.743220     -1.354000
  H      -2.281281     -3.099847     -1.706036
  H       3.196425     -0.488897     -1.838486
  H       4.500929     -1.351575     -0.854261
  H       3.208499     -0.551448      2.306815
  H       2.568344     -2.115647      1.850697
  H       4.237278     -1.707963      1.462310
39
Coordinates from ORCA-job ./output/alpha_guaiene/alpha_guaiene E -99.935943747750
  C      -0.482931      2.661942     -1.101555
  C      -0.888898      2.009160      0.215546
  C       0.245154      1.973193      1.234170
  C       1.551274      1.333718      0.788364
  C       1.442533     -0.058255      0.155638
  C       0.323955     -0.906979      0.761309
  C      -1.040330     -0.540157      0.260569
  C      -1.531339      0.670334      0.003578
  C      -2.915734      0.578906     -0.582339
  C      -3.331254     -0.859517     -0.281081
  C      -2.013192     -1.625880     -0.139634
  C      -1.586571     -2.304209     -1.435000
  C       2.778618     -0.758910      0.204691
  C       3.524332     -0.878020     -0.885954
  C       3.229913     -1.307789      1.523568
  H      -0.064197      3.653732     -0.927523
  H      -1.341089      2.776504     -1.762522
  H       0.262482      2.068489     -1.629155
  H      -1.666546      2.646283      0.651137
  H      -0.123751      1.465871      2.127676
  H       0.465371      2.998041      1.542387
  H       2.201685      1.283510      1.663710
  H       2.067439      1.984750      0.080709
  H       1.190776      0.068442     -0.898380
  H       0.505751     -1.952941      0.508000
  H       0.351972     -0.861051      1.853807
  H      -2.893030      0.780565     -1.657447
  H      -3.598760      1.310735     -0.146686
  H      -3.987313     -1.286661     -1.039217
  H      -3.867832     -0.885017      0.667773
  H      -2.084489     -2.388447      0.641276
  H      -1.562940     -1.584817     -2.254795
  H      -0.592277     -2.743160     -1.352600
  H      -2.278752     -3.102393     -1.703874
  H       3.188109     -0.495314     -1.841390
  H       4.493343     -1.360152     -0.860395
  H       3.213721     -0.547253      2.303696
  H       2.573987     -2.113678      1.853669
  H       4.240811     -1.703576      1.458271
39
Coordinates from ORCA-job ./output/alpha_guaiene/alpha_guaiene E -99.935946730425
  C      -0.480538      2.662139     -1.100903
  C      -0.888572      2.008947      0.215151
  C       0.243333      1.973319      1.236103
  C       1.550722      1.333942      0.793406
  C       1.442162     -0.056231      0.157447
  C       0.323702     -0.906293      0.761850
  C      -1.040434     -0.540335      0.260066
  C      -1.531181      0.670171      0.002538
  C      -2.915490      0.579134     -0.583373
  C      -3.331151     -0.859875     -0.284168
  C      -2.012972     -1.626191     -0.139945
  C      -1.585425     -2.305746     -1.434369
  C       2.777188     -0.758809      0.203992
  C       3.518092     -0.883235     -0.889431
  C       3.233669     -1.304414      1.522275
  H      -0.064882      3.655046     -0.926073
  H      -1.337041      2.774167     -1.764402
  H       0.267931      2.070535     -1.626149
  H      -1.667414      2.645348      0.649734
  H      -0.127356      1.466002      2.128826
  H       0.462363      2.998266      1.544745
  H       2.197677      1.281479      1.671104
  H       2.069652      1.986127      0.088858
  H       1.190056      0.072779     -0.896083
  H       0.506724     -1.951830      0.507729
  H       0.350622     -0.861177      1.854363
  H      -2.893287      0.782305     -1.658155
  H      -3.598100      1.310405     -0.146193
  H      -3.984157     -1.287056     -1.044820
  H      -3.870592     -0.886507      0.662957
  H      -2.085298     -2.387553      0.641974
  H      -1.563917     -1.587187     -2.254922
  H      -0.590240     -2.742639     -1.352443
  H      -2.276599     -3.105183     -1.701994
  H       3.179250     -0.501805     -1.844463
  H       4.485742     -1.368215     -0.866958
  H       3.230940     -0.538726      2.297566
  H       2.573983     -2.102603      1.863118
  H       4.240840     -1.708504      1.451042
39
Coordinates from ORCA-job ./output/alpha_guaiene/alpha_guaiene E -99.935947197254
  C      -0.479842      2.662223     -1.100926
  C      -0.888648      2.009048      0.214898
  C       0.242494      1.973663      1.236709
  C       1.550403      1.334240      0.795485
  C       1.442211     -0.055279      0.158281
  C       0.323753     -0.906018      0.761904
  C      -1.040366     -0.540268      0.259932
  C      -1.531065      0.670170      0.002159
  C      -2.915359      0.579088     -0.583873
  C      -3.330959     -0.860033     -0.284824
  C      -2.012785     -1.626265     -0.139959
  C      -1.584853     -2.306404     -1.433948
  C       2.777019     -0.758422      0.203619
  C       3.516257     -0.884416     -0.890732
  C       3.234688     -1.303986      1.521576
  H      -0.065466      3.655642     -0.925949
  H      -1.335735      2.773109     -1.765413
  H       0.269865      2.071341     -1.625211
  H      -1.667855      2.645431      0.648834
  H      -0.128921      1.466521      2.129238
  H       0.461124      2.998725      1.545284
  H       2.195816      1.280828      1.674228
  H       2.070586      1.986892      0.092274
  H       1.189969      0.074734     -0.895100
  H       0.507283     -1.951380      0.507407
  H       0.350293     -0.861292      1.854455
  H      -2.893230      0.782394     -1.658624
  H      -3.598036      1.310190     -0.146532
  H      -3.983375     -1.287300     -1.045950
  H      -3.870978     -0.886839      0.661958
  H      -2.085431     -2.387320      0.642259
  H      -1.563620     -1.588100     -2.254760
  H      -0.589487     -2.742829     -1.351811
  H      -2.275748     -3.106175     -1.701308
  H       3.176674     -0.503014     -1.845519
  H       4.483274     -1.370726     -0.869391
  H       3.237744     -0.537005      2.295540
  H       2.572428     -2.098582      1.865776
  H       4.239881     -1.712586      1.448015
