39
Coordinates from ORCA-job ./output/alpha_guaiene/alpha_guaiene E -99.935947197254
  C          -0.47984224831383      2.66222262183087     -1.10092632104648
  C          -0.88864758797463      2.00904818753570      0.21489761766951
  C           0.24249354629312      1.97366299741349      1.23670864529479
  C           1.55040260008789      1.33424014741357      0.79548527934621
  C           1.44221092369336     -0.05527933147832      0.15828085135578
  C           0.32375267758520     -0.90601832198289      0.76190401981336
  C          -1.04036620941860     -0.54026752105325      0.25993161965437
  C          -1.53106548812336      0.67016956432675      0.00215855957908
  C          -2.91535872782184      0.57908836100261     -0.58387343869466
  C          -3.33095936901709     -0.86003343300281     -0.28482360943244
  C          -2.01278465326922     -1.62626549352556     -0.13995885923932
  C          -1.58485289655079     -2.30640383994257     -1.43394832096583
  C           2.77701920533825     -0.75842242558893      0.20361867614852
  C           3.51625740747719     -0.88441624672104     -0.89073228684801
  C           3.23468832030952     -1.30398580683520      1.52157641971754
  H          -0.06546630516299      3.65564196196351     -0.92594939497233
  H          -1.33573546115979      2.77310871645683     -1.76541268514680
  H           0.26986467620275      2.07134113642216     -1.62521073418962
  H          -1.66785545403227      2.64543061933899      0.64883416532180
  H          -0.12892076192657      1.46652074099508      2.12923806890252
  H           0.46112384447434      2.99872492024270      1.54528380704694
  H           2.19581602847055      1.28082836147892      1.67422774922695
  H           2.07058616217403      1.98689226198254      0.09227362685534
  H           1.18996918017378      0.07473397631683     -0.89509979329562
  H           0.50728331988972     -1.95137980028364      0.50740705630412
  H           0.35029308213957     -0.86129155727726      1.85445466859700
  H          -2.89323007003698      0.78239421931072     -1.65862389985059
  H          -3.59803558704450      1.31019049373343     -0.14653196678498
  H          -3.98337526319006     -1.28729975657770     -1.04595015468913
  H          -3.87097780852639     -0.88683902084995      0.66195780546840
  H          -2.08543078067049     -2.38732024406232      0.64225876865971
  H          -1.56362040984155     -1.58809990123753     -2.25475979563485
  H          -0.58948738842607     -2.74282916703213     -1.35181146094275
  H          -2.27574835422924     -3.10617477074397     -1.70130751003160
  H           3.17667424637946     -0.50301407311041     -1.84551913579683
  H           4.48327356002457     -1.37072601948662     -0.86939147599713
  H           3.23774405801091     -0.53700531539690      2.29553996861940
  H           2.57242844236402     -2.09858188258947      1.86577616266676
  H           4.23988054364807     -1.71258635898622      1.44801530731088
