! wB97X-3c OPT FREQ TightSCF
%pal
  nprocs 40
end
* xyz 0 1
C     -0.497378     2.641507    -1.107351
C     -0.882527     2.026226     0.246119
C      0.290137     2.021168     1.247979
C      1.587249     1.346750     0.756707
C      1.415566    -0.069161     0.154546
C      0.291363    -0.872248     0.836497
C     -1.068510    -0.542222     0.261152
C     -1.579246     0.684105     0.067935
C     -2.960803     0.610095    -0.497032
C     -3.341189    -0.864324    -0.395036
C     -2.021942    -1.613880    -0.171745
C     -1.534116    -2.289874    -1.459639
C      2.738081    -0.824770     0.213421
C      3.435544    -1.061357    -0.909190
C      3.307862    -1.288110     1.531142
H      0.035905     3.603908    -0.954487
H     -1.409535     2.851220    -1.704955
H      0.151805     1.961166    -1.693735
H     -1.643396     2.707136     0.688685
H     -0.043624     1.557774     2.201216
H      0.537414     3.075720     1.501372
H      2.277580     1.310615     1.627401
H      2.075413     1.998752    -0.000256
H      1.133199     0.046956    -0.915464
H      0.474708    -1.960347     0.700493
H      0.283296    -0.699411     1.933103
H     -2.950100     0.930026    -1.561079
H     -3.662878     1.244998     0.085123
H     -3.887056    -1.202814    -1.303344
H     -4.002474    -1.012945     0.487379
H     -2.139401    -2.374347     0.631462
H     -1.394937    -1.540631    -2.269176
H     -0.569229    -2.809873    -1.283795
H     -2.275632    -3.046374    -1.793418
H      3.073442    -0.732653    -1.878448
H      4.384318    -1.588790    -0.872471
H      2.652433    -1.003650     2.379731
H      3.413598    -2.393530     1.525957
H      4.305061    -0.826812     1.693199
*
