29
Coordinates from ORCA-job ./output/1_8_cineole/1_8_cineole E -83.923436186122
  C           2.00028637130096     -0.23356869403457     -1.41066895063476
  C           1.23592344300686      0.09001383243054     -0.13670221593618
  C           0.53562693321793     -1.14670339700660      0.44770019152035
  C          -0.26896653738911     -0.75395087938690      1.68250385360995
  C          -1.23073220474891      0.37963625968006      1.29705243243935
  C          -1.10503152820352      0.66936121710884     -0.19555837715911
  O           0.23722940068644      1.06373448604018     -0.46740453448600
  C          -1.40923263305855     -0.59402082494904     -0.99503290229795
  C          -0.45004760193024     -1.71481582722773     -0.56846138733958
  C          -1.97566849063206      1.82637263323825     -0.61952000009570
  C           2.18968519020738      0.73237888669836      0.85812100682681
  H           1.33954764781465     -0.59806278029993     -2.19255001380246
  H           2.48247973900932      0.66918312623088     -1.78209177787604
  H           2.77011347478786     -0.98259987889268     -1.22452817924329
  H           1.29194866289891     -1.89020123529672      0.70423912758576
  H          -0.81779080104388     -1.62749727420049      2.03583556105716
  H           0.38274588595549     -0.45444496574172      2.50052338008942
  H          -0.99834323808904      1.29554302330938      1.84098309634340
  H          -2.26405431366024      0.12212225767193      1.53198270705169
  H          -1.29573499268380     -0.35980958215205     -2.05378340907005
  H          -2.45003484210038     -0.88080614989487     -0.84104212070099
  H           0.06686187704089     -2.13690510787999     -1.42770407092083
  H          -0.99460007508887     -2.53876067804795     -0.10615890244244
  H          -1.83635230591333      2.03369773129763     -1.67913983320748
  H          -3.02588278327519      1.60021038929475     -0.44229595214972
  H          -1.71119762122213      2.72164343388135     -0.05939617419600
  H           1.66818560129707      1.07825631213555      1.74642574083631
  H           2.96924419621986      0.03241092489175      1.15905940215529
  H           2.66378854559564      1.59758376110175      0.39761630204308
