29
Coordinates from ORCA-job ./output/1_8_cineole/1_8_cineole E -83.911436688108
  C       2.032287     -0.226836     -1.422631
  C       1.229405      0.119264     -0.149887
  C       0.558928     -1.174145      0.455506
  C      -0.271600     -0.761071      1.694335
  C      -1.217816      0.401321      1.307435
  C      -1.085827      0.704685     -0.212933
  O       0.253331      1.113446     -0.495078
  C      -1.405002     -0.589184     -1.016052
  C      -0.454390     -1.728328     -0.574625
  C      -2.042069      1.831753     -0.616363
  C       2.216096      0.745876      0.859114
  H       1.360065     -0.499132     -2.261480
  H       2.621157      0.650084     -1.767915
  H       2.732138     -1.068090     -1.229234
  H       1.310866     -1.947999      0.724822
  H      -0.866490     -1.627185      2.059923
  H       0.389183     -0.467219      2.536502
  H      -0.950964      1.307942      1.893688
  H      -2.267227      0.128669      1.556635
  H      -1.272975     -0.395979     -2.103298
  H      -2.460977     -0.896580     -0.848353
  H       0.067981     -2.166858     -1.450440
  H      -1.042284     -2.557443     -0.122243
  H      -1.938683      2.052200     -1.700350
  H      -3.095693      1.545546     -0.409422
  H      -1.805511      2.756616     -0.048050
  H       1.680693      1.197678      1.718718
  H       2.930686     -0.017279      1.235758
  H       2.794689      1.568249      0.385922
29
Coordinates from ORCA-job ./output/1_8_cineole/1_8_cineole E -83.922395741395
  C       2.000608     -0.234552     -1.413979
  C       1.224128      0.107928     -0.145217
  C       0.550704     -1.149654      0.446303
  C      -0.258820     -0.750794      1.680550
  C      -1.218144      0.388780      1.293460
  C      -1.093534      0.681870     -0.203571
  O       0.238261      1.083954     -0.481022
  C      -1.400752     -0.587630     -1.001079
  C      -0.442104     -1.712830     -0.571661
  C      -2.002251      1.820384     -0.612402
  C       2.185252      0.735195      0.861326
  H       1.330140     -0.518709     -2.223604
  H       2.563146      0.632364     -1.759374
  H       2.699916     -1.050516     -1.230237
  H       1.303020     -1.894302      0.703518
  H      -0.820107     -1.614113      2.042836
  H       0.395669     -0.448972      2.498107
  H      -0.974400      1.293971      1.851158
  H      -2.247537      0.119961      1.532547
  H      -1.278235     -0.374246     -2.063713
  H      -2.437369     -0.885048     -0.839646
  H       0.076999     -2.133509     -1.432737
  H      -0.997543     -2.537074     -0.120323
  H      -1.885038      2.035268     -1.674491
  H      -3.041803      1.562345     -0.419807
  H      -1.755037      2.721684     -0.051600
  H       1.648753      1.157633      1.709537
  H       2.899776     -0.003103      1.225997
  H       2.736297      1.553716      0.399126
29
Coordinates from ORCA-job ./output/1_8_cineole/1_8_cineole E -83.923221793566
  C       1.997364     -0.235277     -1.412712
  C       1.231024      0.099882     -0.141414
  C       0.542595     -1.142853      0.445071
  C      -0.260882     -0.750281      1.680618
  C      -1.227302      0.380888      1.293385
  C      -1.101232      0.672046     -0.197950
  O       0.235493      1.068924     -0.472292
  C      -1.406865     -0.590978     -0.994889
  C      -0.443350     -1.711390     -0.570834
  C      -1.984304      1.822288     -0.615317
  C       2.185496      0.733860      0.860343
  H       1.325813     -0.546592     -2.207827
  H       2.532501      0.643177     -1.767669
  H       2.720179     -1.029452     -1.231152
  H       1.300180     -1.882821      0.699670
  H      -0.810009     -1.619722      2.041236
  H       0.393045     -0.444362      2.493732
  H      -0.995875      1.292709      1.842541
  H      -2.256891      0.112743      1.527151
  H      -1.292411     -0.364771     -2.054227
  H      -2.443363     -0.884552     -0.833747
  H       0.076173     -2.126846     -1.431139
  H      -0.987655     -2.538527     -0.115654
  H      -1.854601      2.033435     -1.674822
  H      -3.029207      1.582402     -0.431492
  H      -1.727019      2.718735     -0.054957
  H       1.650080      1.125905      1.720394
  H       2.923908      0.011115      1.204425
  H       2.707110      1.570314      0.399531
29
Coordinates from ORCA-job ./output/1_8_cineole/1_8_cineole E -83.923394382523
  C       1.999508     -0.233918     -1.412019
  C       1.235485      0.094324     -0.139044
  C       0.537432     -1.143485      0.445940
  C      -0.264801     -0.752383      1.681986
  C      -1.231496      0.378137      1.295916
  C      -1.105371      0.668922     -0.195596
  O       0.235579      1.063417     -0.468544
  C      -1.410422     -0.593975     -0.993552
  C      -0.447031     -1.713504     -0.569533
  C      -1.976784      1.825565     -0.618275
  C       2.188158      0.733676      0.858694
  H       1.331167     -0.571094     -2.199329
  H       2.509351      0.656829     -1.774699
  H       2.745779     -1.006944     -1.229560
  H       1.296721     -1.884248      0.700638
  H      -0.810768     -1.625560      2.039561
  H       0.388848     -0.447924      2.496134
  H      -1.003495      1.293620      1.841851
  H      -2.263219      0.113925      1.528623
  H      -1.299465     -0.361716     -2.052691
  H      -2.449140     -0.883979     -0.834566
  H       0.071800     -2.130460     -1.429699
  H      -0.988730     -2.540444     -0.109935
  H      -1.840128      2.033911     -1.677762
  H      -3.025808      1.596275     -0.439101
  H      -1.713531      2.720885     -0.058213
  H       1.657158      1.100848      1.732525
  H       2.948628      0.023325      1.182084
  H       2.684572      1.585979      0.398169
29
Coordinates from ORCA-job ./output/1_8_cineole/1_8_cineole E -83.923427476718
  C       2.000030     -0.233754     -1.411324
  C       1.236442      0.091559     -0.137506
  C       0.535824     -1.145229      0.447083
  C      -0.267374     -0.753422      1.682547
  C      -1.231813      0.378456      1.297112
  C      -1.105940      0.668885     -0.195201
  O       0.236457      1.063110     -0.467455
  C      -1.410309     -0.594581     -0.994201
  C      -0.448689     -1.714404     -0.569035
  C      -1.975251      1.826658     -0.619391
  C       2.189503      0.733089      0.858214
  H       1.335278     -0.587735     -2.194639
  H       2.493367      0.664235     -1.779580
  H       2.760815     -0.992489     -1.227055
  H       1.294063     -1.887433      0.702714
  H      -0.814152     -1.627449      2.037690
  H       0.385409     -0.451458      2.498724
  H      -1.002722      1.294683      1.841943
  H      -2.264723      0.117879      1.530503
  H      -1.299166     -0.360469     -2.053231
  H      -2.450398     -0.882637     -0.837790
  H       0.069463     -2.133583     -1.428897
  H      -0.991218     -2.540187     -0.107724
  H      -1.836296      2.033904     -1.679028
  H      -3.025556      1.600625     -0.441794
  H      -1.710370      2.721877     -0.059455
  H       1.663440      1.086369      1.740965
  H       2.962341      0.029532      1.167935
  H       2.671541      1.593969      0.397880
29
Coordinates from ORCA-job ./output/1_8_cineole/1_8_cineole E -83.923435036951
  C       2.000654     -0.233422     -1.410887
  C       1.236238      0.090168     -0.136995
  C       0.535497     -1.146568      0.447444
  C      -0.268473     -0.753892      1.682469
  C      -1.230905      0.379274      1.297204
  C      -1.105399      0.669165     -0.195447
  O       0.237107      1.063453     -0.467550
  C      -1.409771     -0.594403     -0.994731
  C      -0.450036     -1.714929     -0.568528
  C      -1.975311      1.826568     -0.619620
  C       2.189426      0.732601      0.858156
  H       1.339065     -0.595514     -2.193151
  H       2.485431      0.668393     -1.781288
  H       2.768593     -0.984588     -1.225252
  H       1.292347     -1.889811      0.703691
  H      -0.816639     -1.627654      2.036354
  H       0.383709     -0.453757      2.499903
  H      -0.999598      1.295377      1.841343
  H      -2.264219      0.121143      1.531724
  H      -1.297366     -0.360147     -2.053623
  H      -2.450499     -0.881232     -0.839966
  H       0.067015     -2.136405     -1.427957
  H      -0.994039     -2.539222     -0.106148
  H      -1.836011      2.033589     -1.679312
  H      -3.025691      1.600963     -0.442256
  H      -1.710317      2.721839     -0.059712
  H       1.666479      1.079461      1.745291
  H       2.967950      0.032250      1.160935
  H       2.664761      1.597303      0.397917
29
Coordinates from ORCA-job ./output/1_8_cineole/1_8_cineole E -83.923436186122
  C       2.000286     -0.233569     -1.410669
  C       1.235923      0.090014     -0.136702
  C       0.535627     -1.146703      0.447700
  C      -0.268967     -0.753951      1.682504
  C      -1.230732      0.379636      1.297052
  C      -1.105032      0.669361     -0.195558
  O       0.237229      1.063734     -0.467405
  C      -1.409233     -0.594021     -0.995033
  C      -0.450048     -1.714816     -0.568461
  C      -1.975668      1.826373     -0.619520
  C       2.189685      0.732379      0.858121
  H       1.339548     -0.598063     -2.192550
  H       2.482480      0.669183     -1.782092
  H       2.770113     -0.982600     -1.224528
  H       1.291949     -1.890201      0.704239
  H      -0.817791     -1.627497      2.035836
  H       0.382746     -0.454445      2.500523
  H      -0.998343      1.295543      1.840983
  H      -2.264054      0.122122      1.531983
  H      -1.295735     -0.359810     -2.053783
  H      -2.450035     -0.880806     -0.841042
  H       0.066862     -2.136905     -1.427704
  H      -0.994600     -2.538761     -0.106159
  H      -1.836352      2.033698     -1.679140
  H      -3.025883      1.600210     -0.442296
  H      -1.711198      2.721643     -0.059396
  H       1.668186      1.078256      1.746426
  H       2.969244      0.032411      1.159059
  H       2.663789      1.597584      0.397616
