39
Coordinates from ORCA-job ./output/_e_caryophyllene/_e_caryophyllene E -99.897377050590
  C          -2.38479986547638     -0.77296957563061     -1.77291921763310
  C          -2.01785173245445     -1.14810282574645     -0.37304471770674
  C          -2.32813962368353     -0.45438232118512      0.71721797002991
  C          -2.77132236009246      0.96638937037792      0.79262823263148
  C          -1.51236508859039      1.84083358297814      0.89989322923191
  C          -0.64592371890146      1.74536463962541     -0.33326685479653
  C          -0.94187649853270      2.49168263617335     -1.39083851279217
  C           0.57436464438510      0.86783014669154     -0.37438898960515
  C           1.81295500198022      1.30846278322691      0.42485431819128
  C           2.20584717433859     -0.17192195005560      0.58623710508504
  C           0.72348699938429     -0.52250633905552      0.28927422938388
  C           0.37684929371955     -1.79302555797865     -0.46923809357600
  C          -1.05818004718741     -2.29084789054023     -0.23417147987990
  C           3.17109619272607     -0.61488803318957     -0.49954314344705
  C           2.71457324737828     -0.59653406531016      1.94624203854709
  H          -2.91144636506148     -1.60383726813659     -2.24627382529115
  H          -3.01906039295497      0.10607255400948     -1.82433957299163
  H          -1.49563081997201     -0.57552838805883     -2.37244639681140
  H          -2.00549786341877     -0.86865350145934      1.66830427678307
  H          -3.40326336468940      1.13438768964415      1.66616750671747
  H          -3.34361560330356      1.26974584323162     -0.08252770952851
  H          -1.80593183275943      2.88028028516337      1.05065187478065
  H          -0.94803013673212      1.54525540160641      1.78707234999293
  H          -1.77230632026950      3.18757485035680     -1.37873180303424
  H          -0.36605315601484      2.43389103132651     -2.30594154012613
  H           0.86358365198274      0.76983973304820     -1.42221476086113
  H           2.51614481980924      1.97253183836276     -0.07783041507109
  H           1.53260263215171      1.75170701910849      1.38129815541392
  H           0.20319363253656     -0.51889885044633      1.24849674030777
  H           0.54519736240850     -1.63677778245955     -1.53712291493984
  H           1.06450905385763     -2.58845615166356     -0.17207911861408
  H          -1.28086365645097     -3.10076023334376     -0.93201204310184
  H          -1.12586970048645     -2.70463038436945      0.77283984307446
  H           3.30285685878841     -1.69719618800535     -0.49720469246031
  H           4.15049662900751     -0.16317575216249     -0.33600078834520
  H           2.83646003141436     -0.32317280031889     -1.49425682006014
  H           2.78987166667343     -1.68351817969596      2.01389537806019
  H           3.70601172230505     -0.18456242005102      2.14199278043664
  H           2.04792753218503     -0.25750194606805      2.73932738200564
