! wB97X-3c OPT FREQ TightSCF
%pal
  nprocs 40
end
* xyz 0 1
C      3.379246     1.496837     0.056130
C      2.429732     0.331961    -0.056075
C      1.436780     0.360108    -0.974036
C      0.424377    -0.742704    -1.186407
C     -1.022070    -0.223431    -1.071999
C     -1.512145     0.064064     0.380708
C     -1.633428    -1.237266     1.195854
C     -2.871414     0.751309     0.341227
C     -3.957759     0.195506    -0.210746
O     -0.600937     0.904546     1.048498
C      2.627341    -0.832409     0.880597
H      3.313253     1.929945     1.076229
H      3.152355     2.298940    -0.678595
H      4.417717     1.146121    -0.120218
H      1.349922     1.223189    -1.629075
H      0.577100    -1.612534    -0.519929
H      0.571146    -1.121707    -2.220330
H     -1.122287     0.698688    -1.687562
H     -1.688260    -0.981960    -1.537944
H     -0.634768    -1.670259     1.406370
H     -2.238807    -1.995879     0.655576
H     -2.116528    -1.032722     2.175855
H     -2.973092     1.738802     0.783361
H     -3.922071    -0.789566    -0.663611
H     -4.900648     0.732560    -0.208211
H     -0.530541     1.750979     0.532300
H      1.729842    -0.962302     1.519865
H      2.816519    -1.760252     0.300809
H      3.499426    -0.660564     1.546659
*
