29
Coordinates from ORCA-job ./output/linalool/linalool E -83.862282693333
  C           3.29839682878797      1.57980670058123     -0.31288416310747
  C           2.36498650092056      0.41910409306251     -0.14931906570244
  C           1.39050486589766      0.20032124924180     -1.02876934117614
  C           0.38430657089651     -0.90889404628285     -1.05768874535982
  C          -1.05694314626410     -0.41061030204867     -0.94221570181111
  C          -1.57052890746628     -0.23746428974016      0.48770525726109
  C          -1.85323209804317     -1.58080153893352      1.14027053568888
  C          -2.83084101323681      0.59104387338124      0.54916267705050
  C          -3.60988741673576      0.95429259453348     -0.45571026613347
  O          -0.59510101548078      0.38481572496046      1.31629215402620
  C           2.63972399715223     -0.43161945972032      1.04998707556314
  H           3.25633665496183      2.23785310845133      0.55676514681854
  H           3.06517575083846      2.16650086095397     -1.19891120708606
  H           4.33031471672908      1.23421865090201     -0.39496141452971
  H           1.30397787897907      0.90241830493584     -1.85502161412170
  H           0.59521756958502     -1.65514380149574     -0.29580130034080
  H           0.48737971735947     -1.42115445863247     -2.01690597426800
  H          -1.13673866377284      0.54370243461172     -1.46813187316242
  H          -1.72909002431615     -1.09837580528239     -1.45642592175677
  H          -0.95749562281716     -2.19839591669345      1.15368066488206
  H          -2.64260480137471     -2.10675027598848      0.60734840295450
  H          -2.16997381438170     -1.42959340109725      2.17071762391037
  H          -3.09276779788573      0.88764186879432      1.55993933116427
  H          -3.40089362730258      0.68508591718899     -1.48266309127855
  H          -4.50194741643655      1.54010814859267     -0.27887171853886
  H          -0.14800236528849      1.07383918173244      0.82143515345555
  H           1.90118784735209     -1.21127633532625      1.20019256583883
  H           3.62459982865334     -0.89440986186754      0.96559418011857
  H           2.65394000268953      0.18373678118507      1.95049062964081
