29
Coordinates from ORCA-job ./output/linalool/linalool E -83.847428876179
  C       3.379246      1.496837      0.056130
  C       2.429732      0.331961     -0.056075
  C       1.436780      0.360108     -0.974036
  C       0.424377     -0.742704     -1.186407
  C      -1.022070     -0.223431     -1.071999
  C      -1.512145      0.064064      0.380708
  C      -1.633428     -1.237266      1.195854
  C      -2.871414      0.751309      0.341227
  C      -3.957759      0.195506     -0.210746
  O      -0.600937      0.904546      1.048498
  C       2.627341     -0.832409      0.880597
  H       3.313253      1.929945      1.076229
  H       3.152355      2.298940     -0.678595
  H       4.417717      1.146121     -0.120218
  H       1.349922      1.223189     -1.629075
  H       0.577100     -1.612534     -0.519929
  H       0.571146     -1.121707     -2.220330
  H      -1.122287      0.698688     -1.687562
  H      -1.688260     -0.981960     -1.537944
  H      -0.634768     -1.670259      1.406370
  H      -2.238807     -1.995879      0.655576
  H      -2.116528     -1.032722      2.175855
  H      -2.973092      1.738802      0.783361
  H      -3.922071     -0.789566     -0.663611
  H      -4.900648      0.732560     -0.208211
  H      -0.530541      1.750979      0.532300
  H       1.729842     -0.962302      1.519865
  H       2.816519     -1.760252      0.300809
  H       3.499426     -0.660564      1.546659
29
Coordinates from ORCA-job ./output/linalool/linalool E -83.856666938000
  C       3.443912      1.485732     -0.044604
  C       2.464427      0.351460     -0.088997
  C       1.460297      0.358350     -0.965581
  C       0.422563     -0.715342     -1.130526
  C      -1.020007     -0.208324     -1.012733
  C      -1.555738      0.021170      0.415210
  C      -1.705171     -1.296309      1.161963
  C      -2.903678      0.715727      0.342087
  C      -3.969143      0.226406     -0.280352
  O      -0.661718      0.799325      1.183870
  C       2.659693     -0.755067      0.907707
  H       3.419781      1.962164      0.937973
  H       3.225452      2.241767     -0.796518
  H       4.457101      1.116221     -0.215898
  H       1.377724      1.196703     -1.650200
  H       0.582574     -1.556294     -0.459503
  H       0.540478     -1.115301     -2.142814
  H      -1.115393      0.717730     -1.587363
  H      -1.674932     -0.927065     -1.509093
  H      -0.731115     -1.736898      1.369249
  H      -2.292088     -2.005998      0.583803
  H      -2.201240     -1.130855      2.116855
  H      -2.995815      1.675383      0.838358
  H      -3.942328     -0.728896     -0.787944
  H      -4.898126      0.779840     -0.287364
  H      -0.524437      1.634255      0.738537
  H       1.795337     -0.826534      1.567521
  H       2.805921     -1.709843      0.403455
  H       3.535668     -0.569507      1.528203
29
Coordinates from ORCA-job ./output/linalool/linalool E -83.858100427721
  C       3.436598      1.498626     -0.095381
  C       2.440775      0.380403     -0.103484
  C       1.463193      0.340201     -0.999772
  C       0.422827     -0.726537     -1.139721
  C      -1.011960     -0.220084     -1.012606
  C      -1.539794     -0.041810      0.415446
  C      -1.718306     -1.379275      1.111345
  C      -2.860008      0.700310      0.374720
  C      -3.945233      0.301804     -0.268578
  O      -0.614236      0.669590      1.218928
  C       2.592804     -0.653978      0.975448
  H       3.397497      2.034984      0.852840
  H       3.252934      2.207735     -0.897698
  H       4.449343      1.111809     -0.207143
  H       1.403806      1.141304     -1.731585
  H       0.592985     -1.547238     -0.448142
  H       0.525068     -1.150559     -2.141555
  H      -1.101947      0.726923     -1.549270
  H      -1.679304     -0.908896     -1.528168
  H      -0.756821     -1.865735      1.252764
  H      -2.360764     -2.034489      0.531287
  H      -2.163722     -1.232236      2.091108
  H      -2.901512      1.627553      0.936371
  H      -3.969282     -0.620459     -0.834896
  H      -4.850184      0.892295     -0.238481
  H      -0.403044      1.501787      0.797765
  H       1.710874     -0.670435      1.612994
  H       2.735713     -1.647115      0.555649
  H       3.451706     -0.436478      1.605114
29
Coordinates from ORCA-job ./output/linalool/linalool E -83.858766473271
  C       3.435645      1.529024     -0.156121
  C       2.435844      0.416247     -0.118097
  C       1.473560      0.318170     -1.025860
  C       0.430967     -0.748409     -1.124454
  C      -1.001221     -0.236747     -0.996770
  C      -1.546518     -0.110826      0.429436
  C      -1.783577     -1.467623      1.067852
  C      -2.832614      0.685326      0.409547
  C      -3.921687      0.393304     -0.279040
  O      -0.607051      0.529080      1.282293
  C       2.578540     -0.552766      1.022597
  H       3.393192      2.117572      0.761663
  H       3.266171      2.194304     -1.000163
  H       4.450749      1.136754     -0.228659
  H       1.431338      1.072291     -1.808798
  H       0.614516     -1.539989     -0.401268
  H       0.522741     -1.211389     -2.109864
  H      -1.076966      0.734773     -1.491991
  H      -1.678606     -0.891564     -1.544896
  H      -0.847346     -2.014353      1.150249
  H      -2.486275     -2.053712      0.480738
  H      -2.187935     -1.338893      2.069029
  H      -2.830652      1.566169      1.043918
  H      -3.985600     -0.480505     -0.916337
  H      -4.798732      1.023264     -0.224425
  H      -0.293082      1.338177      0.875191
  H       1.687482     -0.537177      1.649140
  H       2.725923     -1.573486      0.672128
  H       3.431195     -0.297015      1.648261
29
Coordinates from ORCA-job ./output/linalool/linalool E -83.859086940786
  C       3.421148      1.544951     -0.150490
  C       2.436794      0.418955     -0.110603
  C       1.466911      0.313121     -1.012012
  C       0.428115     -0.758324     -1.103903
  C      -1.005002     -0.241873     -0.991816
  C      -1.560897     -0.110432      0.429960
  C      -1.798541     -1.462823      1.078255
  C      -2.847721      0.684338      0.401881
  C      -3.926693      0.408808     -0.309117
  O      -0.627874      0.543657      1.281221
  C       2.621690     -0.568630      1.009172
  H       3.392296      2.119118      0.777577
  H       3.228152      2.221617     -0.981192
  H       4.440266      1.166589     -0.246804
  H       1.413704      1.068790     -1.792981
  H       0.613099     -1.534290     -0.363048
  H       0.528309     -1.240831     -2.079182
  H      -1.074036      0.731763     -1.484584
  H      -1.684392     -0.893568     -1.542632
  H      -0.867917     -2.023732      1.135293
  H      -2.528477     -2.038474      0.513249
  H      -2.173635     -1.323078      2.089987
  H      -2.848306      1.549537      1.057427
  H      -3.984534     -0.450117     -0.967440
  H      -4.805305      1.037117     -0.256239
  H      -0.264706      1.314573      0.840648
  H       1.741114     -0.590187      1.650620
  H       2.785518     -1.580272      0.637970
  H       3.480923     -0.306302      1.624084
29
Coordinates from ORCA-job ./output/linalool/linalool E -83.859425887886
  C       3.378821      1.575759     -0.149272
  C       2.418535      0.429384     -0.107801
  C       1.454411      0.300877     -1.015431
  C       0.430767     -0.787767     -1.099101
  C      -1.003787     -0.271135     -0.994413
  C      -1.552412     -0.128849      0.430642
  C      -1.814279     -1.476627      1.080258
  C      -2.826140      0.689779      0.416271
  C      -3.897432      0.467593     -0.325821
  O      -0.601283      0.512990      1.272041
  C       2.620805     -0.553294      1.013556
  H       3.343434      2.146592      0.781089
  H       3.170270      2.251702     -0.977031
  H       4.405083      1.216461     -0.250267
  H       1.389494      1.054504     -1.797095
  H       0.623401     -1.545069     -0.340613
  H       0.541517     -1.289189     -2.063931
  H      -1.071688      0.703156     -1.486187
  H      -1.686742     -0.924386     -1.539873
  H      -0.905903     -2.076102      1.099813
  H      -2.590184     -2.017211      0.541953
  H      -2.147140     -1.325460      2.105581
  H      -2.816482      1.519805      1.115075
  H      -3.959504     -0.355702     -1.027968
  H      -4.768154      1.105820     -0.258019
  H      -0.154647      1.209467      0.787404
  H       1.735362     -0.605387      1.647848
  H       2.815793     -1.559479      0.641457
  H       3.468086     -0.268229      1.635138
29
Coordinates from ORCA-job ./output/linalool/linalool E -83.859740885790
  C       3.354901      1.601167     -0.162201
  C       2.413591      0.439318     -0.108119
  C       1.438484      0.301555     -1.004566
  C       0.431351     -0.806592     -1.075352
  C      -1.007438     -0.296616     -0.981290
  C      -1.558108     -0.140722      0.444020
  C      -1.843207     -1.485513      1.091568
  C      -2.825958      0.689361      0.431269
  C      -3.864146      0.523359     -0.371069
  O      -0.605270      0.497161      1.285406
  C       2.644262     -0.545667      1.004551
  H       3.329628      2.163550      0.773478
  H       3.119462      2.280807     -0.979210
  H       4.382989      1.255289     -0.289152
  H       1.351503      1.059042     -1.779600
  H       0.630585     -1.548061     -0.303512
  H       0.553751     -1.322543     -2.030887
  H      -1.078500      0.672881     -1.481072
  H      -1.682939     -0.960756     -1.522036
  H      -0.953192     -2.112176      1.098907
  H      -2.642465     -2.000740      0.562545
  H      -2.160947     -1.328094      2.121132
  H      -2.840264      1.467241      1.186918
  H      -3.895207     -0.247121     -1.132395
  H      -4.737577      1.157208     -0.295711
  H      -0.069894      1.100537      0.766023
  H       1.764286     -0.628164      1.643083
  H       2.863320     -1.541517      0.618364
  H       3.487003     -0.244196      1.624210
29
Coordinates from ORCA-job ./output/linalool/linalool E -83.860054848256
  C       3.331871      1.612627     -0.161830
  C       2.401641      0.441392     -0.106712
  C       1.416766      0.306668     -0.993448
  C       0.424492     -0.816463     -1.064290
  C      -1.019755     -0.320559     -0.974868
  C      -1.557276     -0.138535      0.452221
  C      -1.837095     -1.477132      1.116910
  C      -2.831146      0.682617      0.445996
  C      -3.826999      0.570951     -0.417180
  O      -0.603852      0.520695      1.275502
  C       2.650074     -0.553511      0.992095
  H       3.313799      2.162698      0.780593
  H       3.077888      2.299405     -0.966203
  H       4.359083      1.274842     -0.310769
  H       1.311551      1.073532     -1.756079
  H       0.627666     -1.554131     -0.290782
  H       0.557418     -1.331854     -2.018218
  H      -1.105206      0.634441     -1.497788
  H      -1.684868     -1.010156     -1.494185
  H      -0.948720     -2.105596      1.128836
  H      -2.639543     -1.997494      0.598563
  H      -2.150623     -1.309003      2.145951
  H      -2.892012      1.394408      1.261586
  H      -3.805985     -0.131402     -1.241423
  H      -4.713735      1.184273     -0.329297
  H      -0.004012      1.029829      0.726625
  H       1.771455     -0.666851      1.626638
  H       2.895375     -1.534909      0.586715
  H       3.481750     -0.240782      1.620138
29
Coordinates from ORCA-job ./output/linalool/linalool E -83.860525892968
  C       3.309837      1.623179     -0.172876
  C       2.388681      0.444608     -0.110753
  C       1.388103      0.312713     -0.979806
  C       0.413024     -0.826221     -1.047558
  C      -1.040883     -0.358503     -0.960591
  C      -1.564787     -0.140540      0.465055
  C      -1.825050     -1.470513      1.158324
  C      -2.853490      0.654227      0.467638
  C      -3.766056      0.662906     -0.489425
  O      -0.623166      0.561372      1.266645
  C       2.660441     -0.558532      0.974111
  H       3.302843      2.163864      0.774167
  H       3.034778      2.313845     -0.965889
  H       4.334334      1.291676     -0.346745
  H       1.259383      1.087573     -1.729988
  H       0.624129     -1.563232     -0.276600
  H       0.555857     -1.336136     -2.002553
  H      -1.153481      0.570600     -1.521588
  H      -1.684292     -1.090217     -1.445924
  H      -0.926267     -2.082454      1.193638
  H      -2.612865     -2.017633      0.645597
  H      -2.149747     -1.289108      2.181438
  H      -3.010151      1.224506      1.376111
  H      -3.643848      0.108692     -1.410951
  H      -4.678524      1.233543     -0.381076
  H       0.060514      0.937854      0.708557
  H       1.782060     -0.713013      1.598858
  H       2.947382     -1.519748      0.549788
  H       3.471240     -0.225308      1.617696
29
Coordinates from ORCA-job ./output/linalool/linalool E -83.860805815710
  C       3.318829      1.599508     -0.164706
  C       2.384875      0.430526     -0.111853
  C       1.377676      0.318428     -0.974182
  C       0.398727     -0.814421     -1.054985
  C      -1.058983     -0.362434     -0.958891
  C      -1.570846     -0.121333      0.464182
  C      -1.766974     -1.442519      1.196946
  C      -2.891560      0.612485      0.473330
  C      -3.756762      0.685802     -0.523675
  O      -0.659724      0.650908      1.236776
  C       2.650225     -0.585620      0.962903
  H       3.314147      2.134437      0.785133
  H       3.050267      2.296243     -0.954380
  H       4.339579      1.258907     -0.340208
  H       1.247352      1.103737     -1.713184
  H       0.609997     -1.570066     -0.302562
  H       0.537319     -1.302851     -2.021806
  H      -1.191232      0.546305     -1.548073
  H      -1.689220     -1.122385     -1.417126
  H      -0.833417     -1.996459      1.265358
  H      -2.509949     -2.054169      0.690234
  H      -2.114867     -1.252982      2.210543
  H      -3.123420      1.080388      1.423666
  H      -3.562557      0.240511     -1.490060
  H      -4.697483      1.204925     -0.400243
  H       0.032198      1.005773      0.674558
  H       1.763793     -0.758074      1.570694
  H       2.959512     -1.535341      0.529165
  H       3.442498     -0.250230      1.627747
29
Coordinates from ORCA-job ./output/linalool/linalool E -83.861020468807
  C       3.316221      1.599662     -0.171488
  C       2.377810      0.435221     -0.112948
  C       1.379466      0.309786     -0.983212
  C       0.396949     -0.817997     -1.062330
  C      -1.060539     -0.368883     -0.958787
  C      -1.572378     -0.135898      0.462312
  C      -1.762263     -1.455559      1.199007
  C      -2.891710      0.597016      0.475733
  C      -3.749370      0.715215     -0.523012
  O      -0.660511      0.637010      1.236052
  C       2.640847     -0.569464      0.974442
  H       3.303599      2.150766      0.769462
  H       3.060181      2.284160     -0.976733
  H       4.339653      1.255663     -0.325741
  H       1.259978      1.082951     -1.737740
  H       0.613509     -1.576151     -0.313163
  H       0.528039     -1.304308     -2.031531
  H      -1.192403      0.544271     -1.542490
  H      -1.696156     -1.123772     -1.420072
  H      -0.824702     -2.003655      1.263037
  H      -2.504638     -2.072534      0.697182
  H      -2.103488     -1.264293      2.214585
  H      -3.126883      1.035613      1.439587
  H      -3.557770      0.299417     -1.503234
  H      -4.683928      1.242793     -0.388618
  H       0.034889      0.992037      0.678473
  H       1.747871     -0.747669      1.571013
  H       2.967047     -1.522081      0.558391
  H       3.420680     -0.219319      1.647122
29
Coordinates from ORCA-job ./output/linalool/linalool E -83.861106170449
  C       3.319003      1.588766     -0.166312
  C       2.374398      0.429689     -0.113710
  C       1.388455      0.299693     -0.997647
  C       0.395362     -0.817422     -1.082261
  C      -1.057850     -0.358411     -0.962859
  C      -1.566301     -0.138064      0.460649
  C      -1.740304     -1.457363      1.200944
  C      -2.888371      0.589275      0.477436
  C      -3.759858      0.704044     -0.509970
  O      -0.653729      0.638663      1.231103
  C       2.620112     -0.566820      0.986157
  H       3.291001      2.152537      0.767587
  H       3.084110      2.264853     -0.985996
  H       4.345550      1.240320     -0.292067
  H       1.285691      1.065904     -1.762337
  H       0.614560     -1.587370     -0.344620
  H       0.512756     -1.293367     -2.058932
  H      -1.182292      0.565827     -1.532233
  H      -1.707824     -1.096773     -1.433253
  H      -0.794753     -1.993120      1.260367
  H      -2.477559     -2.085612      0.704344
  H      -2.076422     -1.265347      2.218372
  H      -3.110851      1.039063      1.439644
  H      -3.589936      0.274553     -1.488847
  H      -4.688650      1.239794     -0.367816
  H       0.004064      1.044904      0.662572
  H       1.714449     -0.747627      1.563798
  H       2.960973     -1.522851      0.588227
  H       3.384216     -0.207741      1.672960
29
Coordinates from ORCA-job ./output/linalool/linalool E -83.861152899042
  C       3.302708      1.595885     -0.174542
  C       2.364112      0.432446     -0.116319
  C       1.384638      0.288505     -1.006181
  C       0.395455     -0.833086     -1.086898
  C      -1.058008     -0.375380     -0.961471
  C      -1.563141     -0.151963      0.462783
  C      -1.736710     -1.468397      1.207994
  C      -2.884016      0.577609      0.484555
  C      -3.732767      0.753181     -0.514059
  O      -0.647566      0.626508      1.228553
  C       2.609760     -0.553413      0.992978
  H       3.263725      2.170692      0.752498
  H       3.072728      2.261475     -1.004404
  H       4.332585      1.251392     -0.285871
  H       1.284203      1.046895     -1.778942
  H       0.621936     -1.603269     -0.351197
  H       0.509821     -1.308150     -2.064461
  H      -1.183839      0.549709     -1.529702
  H      -1.710550     -1.113082     -1.429868
  H      -0.791756     -2.006021      1.264445
  H      -2.478345     -2.096872      0.717767
  H      -2.066575     -1.270552      2.226662
  H      -3.127358      0.972571      1.465694
  H      -3.543703      0.381739     -1.513036
  H      -4.663228      1.283296     -0.361482
  H       0.015548      1.019888      0.657009
  H       1.696434     -0.756966      1.550824
  H       2.984511     -1.502086      0.607003
  H       3.349397     -0.172553      1.694965
29
Coordinates from ORCA-job ./output/linalool/linalool E -83.861201310418
  C       3.303204      1.597253     -0.183902
  C       2.364523      0.434178     -0.118396
  C       1.386532      0.285411     -1.009237
  C       0.397005     -0.837099     -1.085017
  C      -1.055307     -0.376029     -0.957855
  C      -1.562203     -0.158617      0.467427
  C      -1.744647     -1.478791      1.202651
  C      -2.879697      0.578071      0.489698
  C      -3.724847      0.760471     -0.510726
  O      -0.642984      0.607089      1.241075
  C       2.607420     -0.544411      0.997094
  H       3.260745      2.179602      0.738183
  H       3.076409      2.256221     -1.019667
  H       4.333247      1.251548     -0.289114
  H       1.288520      1.039090     -1.786688
  H       0.625001     -1.606627     -0.349454
  H       0.509038     -1.313378     -2.062051
  H      -1.177801      0.553137     -1.519995
  H      -1.709783     -1.108103     -1.432029
  H      -0.803218     -2.022360      1.257630
  H      -2.488650     -2.099395      0.706389
  H      -2.076419     -1.285534      2.221551
  H      -3.123013      0.973267      1.470728
  H      -3.535564      0.390959     -1.510257
  H      -4.652473      1.295926     -0.359236
  H       0.002223      1.026915      0.668068
  H       1.690653     -0.754519      1.546102
  H       2.995600     -1.490308      0.617555
  H       3.336486     -0.153966      1.704774
29
Coordinates from ORCA-job ./output/linalool/linalool E -83.861393340167
  C       3.299293      1.606445     -0.232281
  C       2.363278      0.443311     -0.128628
  C       1.392211      0.265957     -1.022009
  C       0.404416     -0.862656     -1.072005
  C      -1.044186     -0.390732     -0.943066
  C      -1.557956     -0.197286      0.485004
  C      -1.787371     -1.531558      1.175034
  C      -2.854091      0.579731      0.514969
  C      -3.673962      0.819318     -0.494200
  O      -0.614586      0.498819      1.292110
  C       2.600353     -0.497118      1.016833
  H       3.238744      2.227372      0.662868
  H       3.085559      2.229120     -1.097754
  H       4.331054      1.259190     -0.307027
  H       1.302705      0.994499     -1.823284
  H       0.639944     -1.624614     -0.332498
  H       0.509640     -1.349094     -2.043980
  H      -1.151750      0.553800     -1.481448
  H      -1.705346     -1.100435     -1.440086
  H      -0.866271     -2.108523      1.217179
  H      -2.548183     -2.109393      0.654970
  H      -2.121384     -1.358404      2.196603
  H      -3.103545      0.954862      1.502212
  H      -3.480149      0.476865     -1.501907
  H      -4.586647      1.379721     -0.340990
  H      -0.078227      1.065450      0.734513
  H       1.669210     -0.767239      1.509035
  H       3.084306     -1.412581      0.674017
  H       3.252940     -0.044827      1.761116
29
Coordinates from ORCA-job ./output/linalool/linalool E -83.861512685421
  C       3.307049      1.607967     -0.276466
  C       2.370041      0.448506     -0.138277
  C       1.395923      0.252732     -1.024111
  C       0.408178     -0.877724     -1.051241
  C      -1.039603     -0.401206     -0.930803
  C      -1.566086     -0.225590      0.495747
  C      -1.824322     -1.568992      1.154601
  C      -2.849758      0.572390      0.529863
  C      -3.637329      0.871609     -0.488969
  O      -0.614424      0.425197      1.328838
  C       2.613930     -0.464112      1.026061
  H       3.243064      2.256584      0.598444
  H       3.096648      2.203693     -1.161115
  H       4.338655      1.258131     -0.337902
  H       1.306688      0.963638     -1.840870
  H       0.645607     -1.628853     -0.302192
  H       0.512854     -1.378543     -2.015742
  H      -1.135078      0.551571     -1.456344
  H      -1.700187     -1.098261     -1.445720
  H      -0.915035     -2.164271      1.189298
  H      -2.591787     -2.120000      0.616353
  H      -2.163285     -1.412511      2.177121
  H      -3.121086      0.908269      1.525493
  H      -3.423586      0.571430     -1.505758
  H      -4.544335      1.440670     -0.333448
  H      -0.173506      1.106837      0.818856
  H       1.682668     -0.801367      1.471906
  H       3.186904     -1.338233      0.713083
  H       3.191200      0.040437      1.798596
29
Coordinates from ORCA-job ./output/linalool/linalool E -83.861715040321
  C       3.319341      1.600861     -0.298337
  C       2.379326      0.445623     -0.142108
  C       1.394283      0.247842     -1.014504
  C       0.404548     -0.879455     -1.030884
  C      -1.044875     -0.404238     -0.928060
  C      -1.580919     -0.233072      0.494763
  C      -1.837112     -1.580061      1.148782
  C      -2.866759      0.558416      0.531667
  C      -3.627135      0.905029     -0.492659
  O      -0.635214      0.417115      1.334930
  C       2.640732     -0.457909      1.025439
  H       3.267053      2.257156      0.571591
  H       3.100656      2.189421     -1.185918
  H       4.349257      1.247709     -0.368517
  H       1.296601      0.956550     -1.832512
  H       0.635134     -1.617788     -0.267365
  H       0.517197     -1.396375     -1.986266
  H      -1.134254      0.547247     -1.456507
  H      -1.699288     -1.103389     -1.448342
  H      -0.926888     -2.174239      1.180269
  H      -2.603262     -2.129450      0.606842
  H      -2.176667     -1.431155      2.172080
  H      -3.167576      0.842656      1.535040
  H      -3.384498      0.653827     -1.516157
  H      -4.540906      1.462219     -0.334148
  H      -0.238436      1.143105      0.850094
  H       1.720199     -0.858004      1.439395
  H       3.282680     -1.288143      0.726736
  H       3.156784      0.078500      1.819957
29
Coordinates from ORCA-job ./output/linalool/linalool E -83.861896549972
  C       3.327012      1.591935     -0.322876
  C       2.381625      0.443845     -0.147091
  C       1.393858      0.232829     -1.012645
  C       0.399607     -0.886888     -1.020621
  C      -1.050194     -0.409426     -0.933491
  C      -1.590938     -0.250576      0.487387
  C      -1.852244     -1.601801      1.132846
  C      -2.869258      0.548891      0.536509
  C      -3.614105      0.947628     -0.480583
  O      -0.639017      0.386376      1.332447
  C       2.656271     -0.433779      1.037762
  H       3.281973      2.265134      0.534919
  H       3.108043      2.164446     -1.221817
  H       4.356648      1.235561     -0.388201
  H       1.294749      0.931971     -1.839708
  H       0.620388     -1.608279     -0.237610
  H       0.519953     -1.424864     -1.964100
  H      -1.129557      0.545942     -1.457248
  H      -1.705356     -1.102372     -1.462568
  H      -0.945731     -2.203220      1.148926
  H      -2.627397     -2.139869      0.591231
  H      -2.180550     -1.461793      2.161085
  H      -3.177742      0.793023      1.548354
  H      -3.364006      0.732054     -1.510869
  H      -4.522702      1.509679     -0.310419
  H      -0.292246      1.162281      0.888292
  H       1.755890     -0.916989      1.404774
  H       3.389673     -1.201325      0.783557
  H       3.075354      0.149586      1.857057
29
Coordinates from ORCA-job ./output/linalool/linalool E -83.861959505060
  C       3.318354      1.596743     -0.322551
  C       2.379590      0.443113     -0.147291
  C       1.388917      0.228775     -1.008546
  C       0.397551     -0.892475     -1.016776
  C      -1.053776     -0.417371     -0.935352
  C      -1.594027     -0.254698      0.485047
  C      -1.862737     -1.603815      1.132725
  C      -2.867134      0.552428      0.535376
  C      -3.606406      0.963991     -0.480859
  O      -0.638824      0.381620      1.327844
  C       2.668437     -0.432761      1.035448
  H       3.278524      2.264807      0.539621
  H       3.089150      2.173405     -1.216618
  H       4.349219      1.245667     -0.398467
  H       1.282490      0.930715     -1.832688
  H       0.614544     -1.606371     -0.225467
  H       0.524200     -1.437678     -1.955340
  H      -1.134116      0.535987     -1.462887
  H      -1.707253     -1.113965     -1.462112
  H      -0.960328     -2.211702      1.148224
  H      -2.642279     -2.137099      0.592198
  H      -2.188462     -1.460971      2.161491
  H      -3.174912      0.790735      1.548794
  H      -3.353481      0.752050     -1.511357
  H      -4.511371      1.531786     -0.310653
  H      -0.265436      1.139165      0.873380
  H       1.783988     -0.957642      1.384308
  H       3.438677     -1.166821      0.791445
  H       3.046902      0.162382      1.866362
29
Coordinates from ORCA-job ./output/linalool/linalool E -83.862049869932
  C       3.303114      1.606000     -0.339301
  C       2.376264      0.444424     -0.150810
  C       1.382966      0.215041     -1.005157
  C       0.396723     -0.910576     -1.006297
  C      -1.055182     -0.434344     -0.933823
  C      -1.598686     -0.271624      0.485863
  C      -1.897083     -1.619234      1.121768
  C      -2.854360      0.563329      0.539874
  C      -3.577663      1.006244     -0.474922
  O      -0.631674      0.335786      1.336554
  C       2.688559     -0.415222      1.036184
  H       3.266429      2.278068      0.519905
  H       3.061041      2.176449     -1.234144
  H       4.336384      1.263579     -0.423122
  H       1.268051      0.912571     -1.832255
  H       0.608738     -1.611269     -0.201847
  H       0.530682     -1.468842     -1.935893
  H      -1.131528      0.520099     -1.460052
  H      -1.707645     -1.128871     -1.464696
  H      -1.008758     -2.247810      1.133633
  H      -2.686952     -2.129900      0.574415
  H      -2.221564     -1.477983      2.151280
  H      -3.161068      0.794201      1.555274
  H      -3.321593      0.799642     -1.505719
  H      -4.470126      1.593238     -0.304096
  H      -0.247819      1.096410      0.896349
  H       1.853553     -1.044078      1.329168
  H       3.551978     -1.051899      0.833415
  H       2.947220      0.206573      1.893752
29
Coordinates from ORCA-job ./output/linalool/linalool E -83.862145281029
  C       3.290589      1.608339     -0.333272
  C       2.371921      0.439117     -0.150321
  C       1.380234      0.207597     -1.006408
  C       0.393782     -0.918453     -1.013672
  C      -1.056050     -0.436474     -0.936345
  C      -1.593635     -0.267991      0.485551
  C      -1.903221     -1.612261      1.121866
  C      -2.841152      0.580481      0.541497
  C      -3.578900      1.005958     -0.470381
  O      -0.619565      0.330914      1.333957
  C       2.689540     -0.416223      1.036609
  H       3.254177      2.272963      0.531672
  H       3.041263      2.185066     -1.221934
  H       4.325243      1.272485     -0.424857
  H       1.264752      0.908288     -1.830807
  H       0.600980     -1.622806     -0.211340
  H       0.525846     -1.472204     -1.945896
  H      -1.132418      0.516985     -1.464018
  H      -1.711824     -1.130218     -1.463833
  H      -1.019293     -2.247186      1.135824
  H      -2.695631     -2.117906      0.573628
  H      -2.227153     -1.467643      2.151134
  H      -3.128206      0.836702      1.556498
  H      -3.340655      0.771740     -1.499505
  H      -4.463587      1.604194     -0.298748
  H      -0.189371      1.053878      0.873829
  H       1.894863     -1.112850      1.283149
  H       3.607601     -0.982081      0.867807
  H       2.859872      0.209590      1.913619
29
Coordinates from ORCA-job ./output/linalool/linalool E -83.862234240099
  C       3.288190      1.600803     -0.326231
  C       2.367330      0.432026     -0.150062
  C       1.382637      0.203227     -1.015388
  C       0.390339     -0.918790     -1.031898
  C      -1.055682     -0.428505     -0.937710
  C      -1.582793     -0.257659      0.488031
  C      -1.889818     -1.601031      1.127464
  C      -2.830533      0.590399      0.545237
  C      -3.587210      0.988842     -0.463463
  O      -0.605815      0.342820      1.331117
  C       2.669544     -0.419334      1.042188
  H       3.245741      2.263875      0.539498
  H       3.045612      2.179696     -1.214933
  H       4.322741      1.263697     -0.411678
  H       1.277664      0.904455     -1.840381
  H       0.598069     -1.640736     -0.245972
  H       0.510224     -1.454486     -1.975927
  H      -1.133555      0.525657     -1.463855
  H      -1.718547     -1.118746     -1.460553
  H      -1.002593     -2.230943      1.145208
  H      -2.678785     -2.112844      0.580361
  H      -2.214857     -1.454214      2.155953
  H      -3.102734      0.870771      1.557981
  H      -3.364573      0.732846     -1.490938
  H      -4.470979      1.587804     -0.289974
  H      -0.152232      1.039597      0.853340
  H       1.903074     -1.159474      1.245027
  H       3.623032     -0.934176      0.911047
  H       2.766511      0.204423      1.931809
29
Coordinates from ORCA-job ./output/linalool/linalool E -83.862272115312
  C       3.294092      1.588206     -0.317919
  C       2.365625      0.424321     -0.149126
  C       1.387597      0.201662     -1.023763
  C       0.386797     -0.912835     -1.048774
  C      -1.055798     -0.415790     -0.940573
  C      -1.573856     -0.244342      0.488240
  C      -1.868344     -1.588273      1.133635
  C      -2.827896      0.593763      0.547919
  C      -3.603524      0.963940     -0.457068
  O      -0.596909      0.366195      1.323493
  C       2.648976     -0.425887      1.048110
  H       3.247987      2.250577      0.548161
  H       3.060727      2.169434     -1.207366
  H       4.327335      1.245831     -0.396366
  H       1.294661      0.903390     -1.849550
  H       0.595497     -1.651452     -0.279016
  H       0.495399     -1.431995     -2.003407
  H      -1.134321      0.538985     -1.465454
  H      -1.725169     -1.103132     -1.458759
  H      -0.974983     -2.209341      1.150706
  H      -2.655047     -2.109594      0.592513
  H      -2.190534     -1.440089      2.162763
  H      -3.089599      0.891484      1.558500
  H      -3.393811      0.692551     -1.483323
  H      -4.491234      1.556272     -0.280823
  H      -0.140500      1.052463      0.833285
  H       1.896831     -1.187688      1.220469
  H       3.620476     -0.912623      0.944577
  H       2.699525      0.193964      1.944217
29
Coordinates from ORCA-job ./output/linalool/linalool E -83.862280104845
  C       3.297693      1.582022     -0.316278
  C       2.365357      0.420932     -0.149390
  C       1.389814      0.200243     -1.027269
  C       0.384978     -0.910348     -1.054520
  C      -1.056486     -0.411477     -0.941346
  C      -1.571682     -0.240134      0.488355
  C      -1.859261     -1.584393      1.136914
  C      -2.829538      0.591788      0.549447
  C      -3.607580      0.958094     -0.455100
  O      -0.595692      0.376651      1.320160
  C       2.642159     -0.428031      1.050339
  H       3.251727      2.244589      0.549711
  H       3.067225      2.163855     -1.206131
  H       4.330210      1.237025     -0.392905
  H       1.301802      0.901322     -1.854161
  H       0.594824     -1.654729     -0.290655
  H       0.489330     -1.424221     -2.012644
  H      -1.135051      0.543605     -1.465885
  H      -1.728204     -1.097960     -1.457725
  H      -0.963671     -2.202226      1.152112
  H      -2.646478     -2.109147      0.599805
  H      -2.178852     -1.435413      2.166752
  H      -3.091884      0.888240      1.560218
  H      -3.398085      0.689180     -1.482061
  H      -4.498160      1.545858     -0.277653
  H      -0.145033      1.064830      0.827340
  H       1.900394     -1.203161      1.207243
  H       3.624032     -0.896564      0.961537
  H       2.666114      0.189569      1.949089
29
Coordinates from ORCA-job ./output/linalool/linalool E -83.862282011344
  C       3.299040      1.579580     -0.311934
  C       2.365352      0.419008     -0.149138
  C       1.390946      0.200938     -1.028850
  C       0.384407     -0.907915     -1.057996
  C      -1.056752     -0.409188     -0.942399
  C      -1.570170     -0.236320      0.487652
  C      -1.852236     -1.579917      1.140190
  C      -2.830903      0.591390      0.548941
  C      -3.612224      0.951029     -0.455483
  O      -0.594918      0.386297      1.316082
  C       2.638782     -0.432564      1.049889
  H       3.254602      2.238764      0.556747
  H       3.068113      2.165135     -1.199291
  H       4.331157      1.233921     -0.390907
  H       1.304819      0.903136     -1.855041
  H       0.595236     -1.654836     -0.296756
  H       0.487199     -1.419421     -2.017663
  H      -1.136306      0.545309     -1.467990
  H      -1.729258     -1.096537     -1.456630
  H      -0.955494     -2.196062      1.154206
  H      -2.640466     -2.107156      0.606947
  H      -2.169548     -1.429018      2.170494
  H      -3.091689      0.890677      1.559232
  H      -3.404676      0.679411     -1.482104
  H      -4.504562      1.536305     -0.278351
  H      -0.146895      1.074024      0.820241
  H       1.895447     -1.207126      1.203051
  H       3.620260     -0.901908      0.962130
  H       2.660738      0.183042      1.950031
29
Coordinates from ORCA-job ./output/linalool/linalool E -83.862282546169
  C       3.298758      1.579439     -0.312944
  C       2.365097      0.418959     -0.149300
  C       1.390688      0.200211     -1.028853
  C       0.384178     -0.908688     -1.057815
  C      -1.056986     -0.410142     -0.942302
  C      -1.570524     -0.237259      0.487672
  C      -1.852978     -1.580753      1.140130
  C      -2.830979      0.590943      0.549294
  C      -3.610398      0.953851     -0.455424
  O      -0.595101      0.385064      1.316225
  C       2.639553     -0.431609      1.050182
  H       3.255747      2.238350      0.556005
  H       3.066542      2.165276     -1.199802
  H       4.330762      1.233754     -0.393530
  H       1.304466      0.902130     -1.855296
  H       0.595041     -1.655190     -0.296172
  H       0.487102     -1.420754     -2.017172
  H      -1.136520      0.544339     -1.467954
  H      -1.729365     -1.097596     -1.456612
  H      -0.956966     -2.197961      1.153468
  H      -2.642183     -2.106947      0.607224
  H      -2.169700     -1.429730      2.170610
  H      -3.092845      0.887602      1.560072
  H      -3.401606      0.684696     -1.482431
  H      -4.502609      1.539349     -0.278307
  H      -0.148367      1.074346      0.821377
  H       1.901135     -1.211392      1.200146
  H       3.624641     -0.894030      0.966112
  H       2.653417      0.183742      1.950697
29
Coordinates from ORCA-job ./output/linalool/linalool E -83.862282693333
  C       3.298397      1.579807     -0.312884
  C       2.364987      0.419104     -0.149319
  C       1.390505      0.200321     -1.028769
  C       0.384307     -0.908894     -1.057689
  C      -1.056943     -0.410610     -0.942216
  C      -1.570529     -0.237464      0.487705
  C      -1.853232     -1.580802      1.140271
  C      -2.830841      0.591044      0.549163
  C      -3.609887      0.954293     -0.455710
  O      -0.595101      0.384816      1.316292
  C       2.639724     -0.431619      1.049987
  H       3.256337      2.237853      0.556765
  H       3.065176      2.166501     -1.198911
  H       4.330315      1.234219     -0.394961
  H       1.303978      0.902418     -1.855022
  H       0.595218     -1.655144     -0.295801
  H       0.487380     -1.421154     -2.016906
  H      -1.136739      0.543702     -1.468132
  H      -1.729090     -1.098376     -1.456426
  H      -0.957496     -2.198396      1.153681
  H      -2.642605     -2.106750      0.607348
  H      -2.169974     -1.429593      2.170718
  H      -3.092768      0.887642      1.559939
  H      -3.400894      0.685086     -1.482663
  H      -4.501947      1.540108     -0.278872
  H      -0.148002      1.073839      0.821435
  H       1.901188     -1.211276      1.200193
  H       3.624600     -0.894410      0.965594
  H       2.653940      0.183737      1.950491
