! wB97X-3c OPT FREQ TightSCF
%pal
  nprocs 40
end
* xyz 0 1
C     -0.590348    -2.706368     1.408793
C     -0.504832    -1.214970     1.614540
C      0.534148    -0.487721     1.146573
C      1.609120    -1.030847     0.220370
C      2.221307     0.073607    -0.702173
C      1.119372     0.965037    -1.272518
C      0.061215     0.462741    -1.933955
C     -1.231048     1.229749    -2.014921
C     -1.930050     1.161455    -0.669796
C     -2.375979    -0.038220    -0.229491
C     -2.853276    -0.328534     1.178640
C     -1.701691    -0.485611     2.198656
C     -2.042370     2.407626     0.173241
C      3.202848     0.942422     0.114352
C      3.005733    -0.584430    -1.855700
H     -1.462970    -3.128433     1.950216
H      0.328040    -3.196482     1.795190
H     -0.713913    -2.937474     0.330314
H      0.525392     0.583354     1.327164
H      1.166507    -1.815703    -0.428434
H      2.399471    -1.522290     0.827925
H      1.089821     2.010313    -0.971793
H      0.042221    -0.586457    -2.212614
H     -1.881899     0.778340    -2.794425
H     -1.027392     2.278348    -2.321342
H     -2.300527    -0.895877    -0.893820
H     -3.420396    -1.284112     1.151152
H     -3.563263     0.453752     1.520987
H     -1.406154     0.513774     2.582710
H     -2.076549    -1.047158     3.081345
H     -3.105585     2.596965     0.429868
H     -1.448711     2.299052     1.102191
H     -1.658451     3.296626    -0.368674
H      3.661018     1.724197    -0.529843
H      4.020389     0.319794     0.537840
H      2.685922     1.451662     0.954881
H      3.443114     0.190028    -2.522559
H      2.347992    -1.236437    -2.468701
H      3.831772    -1.211720    -1.456187
*
