! wB97X-3c OPT FREQ TightSCF
%pal
  nprocs 40
end
* xyz 0 1
C      2.314160     2.692855     1.264842
C      1.767982     1.633394     0.335413
C      2.225551     1.635108    -0.928257
C      0.734609     0.620000     0.861437
C     -0.663247     0.804169     0.212509
C     -0.865155     0.044170    -1.125928
C     -0.451311    -1.437472    -0.968997
C      0.986446    -1.580132    -0.451164
C      1.193945    -0.887032     0.921982
C      2.686044    -0.978120     1.325322
C      0.365981    -1.615199     1.990517
C      0.515715    -2.913087     2.290593
C     -2.309526     0.214498    -1.734555
C     -2.570930     1.693870    -2.082192
C     -3.438827    -0.258886    -0.782137
O     -2.384130    -0.493585    -2.953273
H      1.891638     2.619675     2.287797
H      2.073703     3.701311     0.866113
H      3.417239     2.588436     1.343779
H      2.953860     2.374911    -1.248205
H      1.917324     0.919012    -1.668812
H      0.574072     0.916613     1.921674
H     -1.419585     0.449585     0.942855
H     -0.841005     1.890287     0.069044
H     -0.180433     0.485165    -1.875040
H     -1.138935    -1.966032    -0.277249
H     -0.498962    -1.951683    -1.951886
H      1.224204    -2.662886    -0.377149
H      1.692155    -1.185598    -1.206862
H      3.340477    -0.512607     0.559116
H      2.856708    -0.463677     2.295716
H      3.015067    -2.033527     1.426093
H     -0.393486    -1.070208     2.544257
H     -0.106752    -3.365192     3.055926
H      1.247045    -3.536190     1.788263
H     -1.745534     2.103460    -2.703101
H     -3.512907     1.787590    -2.664892
H     -2.679916     2.318904    -1.171546
H     -3.515402     0.387298     0.116678
H     -3.286917    -1.307397    -0.456795
H     -4.416699    -0.212994    -1.308121
H     -2.574269    -1.448806    -2.761054
*
