42
Coordinates from ORCA-job ./output/elemol/elemol E -117.193181761376
  C           1.83005146002281      2.85795163001638      1.00891267432257
  C           1.69839135361868      1.59414711120703      0.21228740212104
  C           2.27911035487212      1.49782375734270     -0.97659730667153
  C           0.82684606881800      0.55061781777841      0.88354350033601
  C          -0.61503863378904      0.65101780095776      0.36966716053249
  C          -0.79486291708652      0.03350801125144     -1.00922284660713
  C          -0.39830136675540     -1.43590832188008     -0.94427405345345
  C           1.02258592597117     -1.61866704230242     -0.43091629724449
  C           1.30466096401142     -0.92369025775062      0.89948002611481
  C           2.79633452398668     -1.00902041188003      1.22279331099102
  C           0.59427743810077     -1.60001044122469      2.05237654608049
  C           0.01334132233517     -2.78792442746979      2.08100882219288
  C          -2.19598378234654      0.26559144747140     -1.61260126445394
  C          -2.45121688553132      1.74577620944962     -1.83102175991481
  C          -3.31837214518948     -0.33759193604097     -0.78236484277467
  O          -2.23280110448455     -0.29489462897661     -2.92413743323848
  H           0.84852423541098      3.25111292303361      1.27900610258690
  H           2.36705412467861      3.62830549233150      0.46018491278854
  H           2.36141556073842      2.66572259672671      1.94244908328048
  H           2.85204975889244      2.32619236937157     -1.37358377667700
  H           2.22113657093269      0.61726732960060     -1.59595844043850
  H           0.79514491910166      0.85128702669679      1.93444589297094
  H          -1.26536421310713      0.14075168581383      1.08328460905018
  H          -0.91005269259180      1.69983858077577      0.36562603498144
  H          -0.11119707302241      0.53414441218369     -1.69898539441042
  H          -1.09106519638422     -1.97211469158136     -0.29451551823446
  H          -0.45971150281773     -1.89425164938025     -1.93260295966718
  H           1.25063641566990     -2.68157145862838     -0.33363205403087
  H           1.72333511441972     -1.24584576862408     -1.17661985437000
  H           3.39585628048769     -0.53069373191729      0.45242502724822
  H           3.01824174913034     -0.51958550693091      2.17217088875975
  H           3.10103857491724     -2.05146283850366      1.30770988179970
  H           0.62862356031509     -1.03696115976685      2.98192694622019
  H          -0.40858854546131     -3.17025355561838      3.00085901758900
  H          -0.06428264084619     -3.42551467366571      1.21060963037751
  H          -1.62883610419165      2.19606077758178     -2.38504819896589
  H          -3.36215606183487      1.86965872725055     -2.41358600532472
  H          -2.57231399087579      2.27708740574110     -0.89063679938356
  H          -3.35840971245253      0.09865471692831      0.21377564149451
  H          -3.20281189758678     -1.41547838210745     -0.67044127858126
  H          -4.27171334382651     -0.15163432280457     -1.27469965109482
  H          -2.21557946624984     -1.24944162245645     -2.86038637630147
