! wB97X-3c OPT FREQ TightSCF
%pal
  nprocs 40
end
* xyz 0 1
C      1.818481    -2.119731    -0.222023
C      1.312028    -0.722388     0.179956
C     -0.187131    -0.760924     0.563456
C     -1.105854    -1.071702    -0.629698
C     -2.551828    -0.838540    -0.266910
C     -3.180854     0.353964    -0.375637
C     -4.622475     0.482382     0.043535
C     -2.497303     1.571404    -0.948047
C      2.132123    -0.149015     1.363240
C      3.601742     0.148171     1.022959
O      3.716587     0.973948    -0.135639
C      3.417796     2.339952    -0.140467
O      3.067961     2.935573     0.913329
H      1.247472    -2.513381    -1.086922
H      2.878732    -2.077724    -0.542996
H      1.724557    -2.830383     0.626769
H      1.426511    -0.041389    -0.692021
H     -0.353726    -1.515689     1.363915
H     -0.474225     0.228533     0.980749
H     -0.819140    -0.472995    -1.519707
H     -0.998802    -2.141727    -0.904886
H     -3.096678    -1.692837     0.126414
H     -4.721320     1.302473     0.785373
H     -5.011388    -0.450572     0.505130
H     -5.244915     0.722027    -0.843891
H     -2.205106     1.383293    -2.002271
H     -3.178451     2.448621    -0.934836
H     -1.597837     1.828447    -0.352258
H      2.099002    -0.857701     2.219740
H      1.666636     0.799013     1.709365
H      4.149254    -0.799588     0.845124
H      4.092748     0.642780     1.889319
H      3.495406     2.895705    -1.064613
*
