33
Coordinates from ORCA-job ./output/citronellyl_formate/citronellyl_formate E -106.834473703913
  C       1.818481     -2.119731     -0.222023
  C       1.312028     -0.722388      0.179956
  C      -0.187131     -0.760924      0.563456
  C      -1.105854     -1.071702     -0.629698
  C      -2.551828     -0.838540     -0.266910
  C      -3.180854      0.353964     -0.375637
  C      -4.622475      0.482382      0.043535
  C      -2.497303      1.571404     -0.948047
  C       2.132123     -0.149015      1.363240
  C       3.601742      0.148171      1.022959
  O       3.716587      0.973948     -0.135639
  C       3.417796      2.339952     -0.140467
  O       3.067961      2.935573      0.913329
  H       1.247472     -2.513381     -1.086922
  H       2.878732     -2.077724     -0.542996
  H       1.724557     -2.830383      0.626769
  H       1.426511     -0.041389     -0.692021
  H      -0.353726     -1.515689      1.363915
  H      -0.474225      0.228533      0.980749
  H      -0.819140     -0.472995     -1.519707
  H      -0.998802     -2.141727     -0.904886
  H      -3.096678     -1.692837      0.126414
  H      -4.721320      1.302473      0.785373
  H      -5.011388     -0.450572      0.505130
  H      -5.244915      0.722027     -0.843891
  H      -2.205106      1.383293     -2.002271
  H      -3.178451      2.448621     -0.934836
  H      -1.597837      1.828447     -0.352258
  H       2.099002     -0.857701      2.219740
  H       1.666636      0.799013      1.709365
  H       4.149254     -0.799588      0.845124
  H       4.092748      0.642780      1.889319
  H       3.495406      2.895705     -1.064613
33
Coordinates from ORCA-job ./output/citronellyl_formate/citronellyl_formate E -106.857064115151
  C       1.819912     -2.092330     -0.223515
  C       1.311144     -0.710237      0.174054
  C      -0.171241     -0.742778      0.553899
  C      -1.103253     -1.059828     -0.616378
  C      -2.544327     -0.831384     -0.256840
  C      -3.176703      0.338231     -0.371818
  C      -4.611341      0.476427      0.043179
  C      -2.507812      1.555175     -0.950178
  C       2.119796     -0.129810      1.336811
  C       3.576706      0.162286      1.012652
  O       3.716709      0.962143     -0.148906
  C       3.420342      2.262848     -0.078810
  O       3.064852      2.808840      0.938104
  H       1.256896     -2.490144     -1.068034
  H       2.863846     -2.053400     -0.538260
  H       1.732268     -2.789773      0.612716
  H       1.420843     -0.043342     -0.686590
  H      -0.329902     -1.477520      1.349781
  H      -0.448788      0.231010      0.965515
  H      -0.825425     -0.465713     -1.490452
  H      -0.984342     -2.108119     -0.900128
  H      -3.083233     -1.679535      0.150373
  H      -4.716911      1.287756      0.767525
  H      -4.992123     -0.437035      0.498147
  H      -5.231416      0.714328     -0.824862
  H      -2.216218      1.375563     -1.986363
  H      -3.182393      2.411740     -0.940024
  H      -1.619261      1.825039     -0.377750
  H       2.091505     -0.822889      2.183091
  H       1.655854      0.800036      1.672670
  H       4.127466     -0.757067      0.825314
  H       4.051635      0.663099      1.859228
  H       3.514918      2.816384     -1.008601
33
Coordinates from ORCA-job ./output/citronellyl_formate/citronellyl_formate E -106.859480901286
  C       1.822656     -2.078955     -0.236659
  C       1.306310     -0.709182      0.175429
  C      -0.169720     -0.743794      0.552155
  C      -1.108688     -1.060354     -0.608055
  C      -2.546601     -0.835431     -0.248967
  C      -3.185909      0.322479     -0.372062
  C      -4.617328      0.469889      0.041655
  C      -2.525688      1.544096     -0.951309
  C       2.108026     -0.124829      1.332769
  C       3.560457      0.171814      1.024148
  O       3.724140      0.961827     -0.150160
  C       3.448654      2.245173     -0.062744
  O       3.119356      2.820256      0.930661
  H       1.259202     -2.478036     -1.076818
  H       2.863833     -2.036299     -0.550156
  H       1.742794     -2.783666      0.591325
  H       1.410107     -0.037202     -0.679829
  H      -0.325651     -1.473451      1.350535
  H      -0.447128      0.225760      0.966445
  H      -0.834774     -0.453106     -1.471716
  H      -0.979439     -2.099050     -0.910726
  H      -3.079701     -1.679196      0.175930
  H      -4.725029      1.275229      0.768195
  H      -5.002142     -0.443764      0.486206
  H      -5.239193      0.722857     -0.817480
  H      -2.233269      1.374203     -1.986256
  H      -3.200611      2.396290     -0.937077
  H      -1.633242      1.820927     -0.392383
  H       2.086998     -0.818232      2.175953
  H       1.636165      0.794863      1.672078
  H       4.120166     -0.737061      0.828452
  H       4.024703      0.682013      1.865616
  H       3.620549      2.763933     -1.009602
33
Coordinates from ORCA-job ./output/citronellyl_formate/citronellyl_formate E -106.854067694922
  C       1.823647     -2.043120     -0.262137
  C       1.315113     -0.683468      0.179440
  C      -0.156749     -0.711019      0.555887
  C      -1.104333     -1.030790     -0.593213
  C      -2.540080     -0.826359     -0.227040
  C      -3.208635      0.307723     -0.375699
  C      -4.636921      0.445767      0.044139
  C      -2.585473      1.532945     -0.989368
  C       2.121543     -0.118230      1.338054
  C       3.580166      0.139416      1.052537
  O       3.791063      0.934401     -0.124384
  C       3.585569      2.221034     -0.006754
  O       3.093985      2.779445      0.920896
  H       1.252730     -2.429470     -1.102042
  H       2.863669     -2.004841     -0.576525
  H       1.745594     -2.764474      0.551479
  H       1.419815      0.002110     -0.665304
  H      -0.312557     -1.432422      1.361914
  H      -0.431473      0.259163      0.968671
  H      -0.843353     -0.404262     -1.446915
  H      -0.956532     -2.058642     -0.919719
  H      -3.051082     -1.667276      0.231154
  H      -4.755300      1.255438      0.762905
  H      -5.009268     -0.469478      0.494904
  H      -5.270774      0.691391     -0.807342
  H      -2.300856      1.356356     -2.024988
  H      -3.276512      2.370790     -0.980398
  H      -1.686762      1.843883     -0.460125
  H       2.085614     -0.814224      2.178285
  H       1.665773      0.806619      1.681706
  H       4.121336     -0.775444      0.837107
  H       4.049371      0.635273      1.896938
  H       3.611676      2.651768     -1.018514
33
Coordinates from ORCA-job ./output/citronellyl_formate/citronellyl_formate E -106.860219942402
  C       1.823334     -2.057848     -0.258355
  C       1.310271     -0.695967      0.179302
  C      -0.164500     -0.728257      0.557683
  C      -1.109184     -1.043968     -0.596913
  C      -2.544761     -0.831114     -0.229280
  C      -3.204881      0.312176     -0.376339
  C      -4.632718      0.455421      0.047259
  C      -2.570128      1.532193     -0.988611
  C       2.116503     -0.126145      1.339789
  C       3.573340      0.146517      1.044799
  O       3.757482      0.942549     -0.133805
  C       3.512370      2.238032     -0.038141
  O       3.132303      2.822434      0.935551
  H       1.253490     -2.446506     -1.099765
  H       2.864249     -2.014827     -0.574520
  H       1.747415     -2.778065      0.558344
  H       1.413078     -0.010250     -0.667026
  H      -0.320737     -1.453101      1.362271
  H      -0.440646      0.242840      0.971741
  H      -0.844664     -0.419692     -1.452750
  H      -0.969846     -2.076213     -0.918634
  H      -3.061210     -1.669850      0.226344
  H      -4.742147      1.264015      0.771036
  H      -5.011141     -0.459851      0.496696
  H      -5.265096      0.706339     -0.805688
  H      -2.291808      1.352609     -2.027009
  H      -3.253827      2.378224     -0.975479
  H      -1.666786      1.830647     -0.456942
  H       2.086554     -0.822468      2.181935
  H       1.654516      0.798280      1.683555
  H       4.123535     -0.766484      0.836816
  H       4.040943      0.652212      1.887082
  H       3.684699      2.726116     -1.005397
33
Coordinates from ORCA-job ./output/citronellyl_formate/citronellyl_formate E -106.860484039595
  C       1.816603     -2.039461     -0.270797
  C       1.309585     -0.678198      0.176109
  C      -0.164486     -0.706369      0.557752
  C      -1.111552     -1.025995     -0.593252
  C      -2.545596     -0.829622     -0.213929
  C      -3.223843      0.301065     -0.377967
  C      -4.649374      0.433858      0.056074
  C      -2.611305      1.516438     -1.021994
  C       2.119136     -0.118688      1.339356
  C       3.582044      0.126502      1.052839
  O       3.782010      0.927346     -0.122703
  C       3.574163      2.229103     -0.014553
  O       3.242877      2.812344      0.976456
  H       1.242785     -2.421698     -1.112967
  H       2.857263     -1.998717     -0.589418
  H       1.740521     -2.765340      0.541724
  H       1.414330      0.012569     -0.666517
  H      -0.320489     -1.426337      1.367532
  H      -0.438945      0.267985      0.967144
  H      -0.858352     -0.393988     -1.447324
  H      -0.964052     -2.055243     -0.922398
  H      -3.045553     -1.667526      0.261466
  H      -4.761162      1.249038      0.772879
  H      -5.015799     -0.480901      0.517657
  H      -5.291671      0.670536     -0.794151
  H      -2.350340      1.323339     -2.063101
  H      -3.302169      2.357286     -1.009457
  H      -1.699512      1.831479     -0.512742
  H       2.073009     -0.811942      2.184252
  H       1.671163      0.815108      1.678065
  H       4.118324     -0.794084      0.840671
  H       4.055856      0.623077      1.897770
  H       3.754534      2.717036     -0.978926
33
Coordinates from ORCA-job ./output/citronellyl_formate/citronellyl_formate E -106.860598180424
  C       1.811445     -2.021413     -0.283336
  C       1.310500     -0.659247      0.167721
  C      -0.163110     -0.678195      0.549724
  C      -1.113102     -0.999162     -0.596894
  C      -2.543756     -0.827539     -0.198100
  C      -3.244856      0.286407     -0.379230
  C      -4.665867      0.406995      0.071921
  C      -2.658412      1.496741     -1.057108
  C       2.117541     -0.106072      1.334999
  C       3.588363      0.102156      1.068528
  O       3.810362      0.904027     -0.104742
  C       3.650527      2.213302      0.014565
  O       3.350032      2.796430      1.015229
  H       1.235567     -2.399190     -1.125972
  H       2.851880     -1.984285     -0.602742
  H       1.733419     -2.750420      0.526498
  H       1.420839      0.034047     -0.672223
  H      -0.322251     -1.390252      1.366001
  H      -0.432598      0.300909      0.952129
  H      -0.876904     -0.353764     -1.445373
  H      -0.954999     -2.022286     -0.940352
  H      -3.019084     -1.664116      0.304128
  H      -4.777780      1.227873      0.782421
  H      -5.016732     -0.507201      0.546656
  H      -5.321947      0.628498     -0.771963
  H      -2.427038      1.292622     -2.103216
  H      -3.353336      2.334204     -1.034710
  H      -1.732608      1.823417     -0.579214
  H       2.043198     -0.787626      2.187652
  H       1.686495      0.841714      1.657325
  H       4.109456     -0.827001      0.857154
  H       4.063599      0.590690      1.917114
  H       3.841161      2.697736     -0.949040
33
Coordinates from ORCA-job ./output/citronellyl_formate/citronellyl_formate E -106.860743122293
  C       1.806323     -2.010993     -0.281073
  C       1.313299     -0.644276      0.164304
  C      -0.161963     -0.654122      0.543815
  C      -1.113779     -0.974574     -0.601980
  C      -2.545622     -0.821810     -0.197081
  C      -3.268977      0.277476     -0.383367
  C      -4.689276      0.374035      0.075352
  C      -2.711278      1.494815     -1.072188
  C       2.122311     -0.093145      1.332183
  C       3.599466      0.085891      1.077166
  O       3.847221      0.883280     -0.094770
  C       3.734067      2.197452      0.028964
  O       3.458481      2.786891      1.033061
  H       1.228285     -2.388877     -1.122091
  H       2.846730     -1.980803     -0.601056
  H       1.724601     -2.736683      0.531372
  H       1.430119      0.045673     -0.677473
  H      -0.325068     -1.362212      1.362712
  H      -0.427391      0.327569      0.942834
  H      -0.886615     -0.320991     -1.446145
  H      -0.946900     -1.993509     -0.953888
  H      -3.003217     -1.662135      0.315138
  H      -4.811351      1.193741      0.785512
  H      -5.021908     -0.545379      0.553057
  H      -5.353737      0.583019     -0.765121
  H      -2.497073      1.294054     -2.122576
  H      -3.416638      2.323069     -1.036547
  H      -1.782176      1.833213     -0.611389
  H       2.027714     -0.764105      2.191302
  H       1.706125      0.865503      1.641714
  H       4.103293     -0.853431      0.869541
  H       4.078436      0.564717      1.929021
  H       3.936502      2.676650     -0.934752
33
Coordinates from ORCA-job ./output/citronellyl_formate/citronellyl_formate E -106.860913090949
  C       1.803638     -2.008717     -0.270541
  C       1.322100     -0.634128      0.163358
  C      -0.155399     -0.631829      0.539740
  C      -1.110474     -0.940639     -0.607687
  C      -2.544128     -0.803884     -0.199588
  C      -3.295254      0.276212     -0.389921
  C      -4.715309      0.336838      0.076215
  C      -2.779204      1.503795     -1.091192
  C       2.134716     -0.084472      1.331076
  C       3.616407      0.071109      1.083749
  O       3.887946      0.861979     -0.086477
  C       3.812827      2.178316      0.040461
  O       3.542967      2.772780      1.043005
  H       1.221300     -2.389505     -1.107148
  H       2.843253     -1.988917     -0.593580
  H       1.718355     -2.726688      0.548262
  H       1.447612      0.049830     -0.682046
  H      -0.324422     -1.342178      1.355435
  H      -0.413690      0.350148      0.943199
  H      -0.889000     -0.275834     -1.444464
  H      -0.939555     -1.954864     -0.971075
  H      -2.982370     -1.649048      0.321713
  H      -4.854220      1.154235      0.785846
  H      -5.021836     -0.589902      0.557137
  H      -5.389270      0.527189     -0.761043
  H      -2.596873      1.310247     -2.148963
  H      -3.496216      2.320377     -1.029256
  H      -1.842870      1.854315     -0.658798
  H       2.024058     -0.746338      2.195209
  H       1.731175      0.882906      1.631188
  H       4.102758     -0.878568      0.881430
  H       4.098701      0.540345      1.938787
  H       4.042280      2.654893     -0.918480
33
Coordinates from ORCA-job ./output/citronellyl_formate/citronellyl_formate E -106.861016450887
  C       1.803236     -2.008899     -0.263752
  C       1.329074     -0.629918      0.164621
  C      -0.149174     -0.619741      0.538880
  C      -1.105310     -0.912526     -0.611625
  C      -2.538522     -0.786947     -0.199348
  C      -3.309412      0.277768     -0.394867
  C      -4.728473      0.313962      0.077835
  C      -2.823398      1.509246     -1.109876
  C       2.142415     -0.082932      1.333408
  C       3.625908      0.061368      1.089915
  O       3.908570      0.847271     -0.080125
  C       3.853165      2.164643      0.046724
  O       3.588621      2.763745      1.047944
  H       1.217087     -2.391270     -1.096978
  H       2.841855     -1.995158     -0.590339
  H       1.717159     -2.722304      0.558765
  H       1.460618      0.051558     -0.681726
  H      -0.323322     -1.336118      1.348195
  H      -0.401763      0.360480      0.950328
  H      -0.887353     -0.234869     -1.438893
  H      -0.933979     -1.921674     -0.988876
  H      -2.961283     -1.633812      0.332356
  H      -4.878721      1.131371      0.785083
  H      -5.015920     -0.616238      0.563646
  H      -5.409582      0.488703     -0.756993
  H      -2.682415      1.320029     -2.174803
  H      -3.539971      2.323247     -1.017229
  H      -1.872329      1.860374     -0.712355
  H       2.023270     -0.741205      2.199086
  H       1.744986      0.888109      1.629748
  H       4.103350     -0.893787      0.891860
  H       4.109126      0.527162      1.946220
  H       4.092494      2.638359     -0.911277
33
Coordinates from ORCA-job ./output/citronellyl_formate/citronellyl_formate E -106.861189069310
  C       1.804425     -2.009847     -0.254735
  C       1.340823     -0.626143      0.170255
  C      -0.138061     -0.605307      0.541687
  C      -1.094538     -0.866792     -0.615248
  C      -2.526252     -0.757243     -0.196156
  C      -3.326259      0.282878     -0.402790
  C      -4.743322      0.284646      0.078846
  C      -2.884973      1.515742     -1.143191
  C       2.155613     -0.086004      1.341271
  C       3.640519      0.046290      1.099893
  O       3.931977      0.825615     -0.070798
  C       3.891723      2.143684      0.053486
  O       3.628687      2.748914      1.051382
  H       1.211207     -2.392933     -1.082686
  H       2.840943     -2.003569     -0.588404
  H       1.719256     -2.718467      0.571773
  H       1.480593      0.053977     -0.675621
  H      -0.320959     -1.334701      1.337375
  H      -0.381890      0.370137      0.969511
  H      -0.880189     -0.166340     -1.423952
  H      -0.924771     -1.866196     -1.018722
  H      -2.924924     -1.604326      0.354372
  H      -4.911113      1.104280      0.779466
  H      -5.002525     -0.648314      0.574870
  H      -5.433931      0.432960     -0.753270
  H      -2.834257      1.333705     -2.217708
  H      -3.584187      2.335162     -0.987048
  H      -1.901472      1.854179     -0.821481
  H       2.028249     -0.742861      2.206718
  H       1.765107      0.888193      1.636553
  H       4.108234     -0.914889      0.907131
  H       4.125151      0.509750      1.956612
  H       4.141118      2.613820     -0.903841
33
Coordinates from ORCA-job ./output/citronellyl_formate/citronellyl_formate E -106.861463025082
  C       1.808109     -2.012586     -0.242724
  C       1.357635     -0.624662      0.183209
  C      -0.121349     -0.591219      0.551488
  C      -1.075877     -0.801954     -0.615826
  C      -2.505457     -0.712062     -0.189988
  C      -3.342580      0.293553     -0.414388
  C      -4.757208      0.250660      0.074594
  C      -2.959796      1.523864     -1.189469
  C       2.174935     -0.096240      1.357246
  C       3.660181      0.026460      1.113414
  O       3.954392      0.797140     -0.059962
  C       3.916009      2.115677      0.055953
  O       3.647663      2.729516      1.047159
  H       1.203955     -2.395072     -1.063149
  H       2.840999     -2.014108     -0.587923
  H       1.726910     -2.717047      0.587450
  H       1.506847      0.056131     -0.660192
  H      -0.317438     -1.342419      1.323449
  H      -0.353432      0.374642      1.006486
  H      -0.862315     -0.068700     -1.394456
  H      -0.910823     -1.785261     -1.059584
  H      -2.872972     -1.557223      0.385874
  H      -4.951442      1.073879      0.763979
  H      -4.980114     -0.683737      0.584955
  H      -5.456332      0.361519     -0.756284
  H      -3.069955      1.358849     -2.262792
  H      -3.601845      2.362808     -0.926526
  H      -1.929380      1.822788     -1.005535
  H       2.042771     -0.755973      2.219563
  H       1.790801      0.879220      1.656378
  H       4.119396     -0.940251      0.927074
  H       4.147124      0.490527      1.968556
  H       4.170589      2.581283     -0.902479
33
Coordinates from ORCA-job ./output/citronellyl_formate/citronellyl_formate E -106.861797201879
  C       1.811896     -2.013724     -0.226350
  C       1.378255     -0.621858      0.205036
  C      -0.099953     -0.572403      0.570342
  C      -1.047934     -0.715021     -0.610144
  C      -2.476505     -0.651587     -0.182751
  C      -3.359535      0.306802     -0.432581
  C      -4.771940      0.203936      0.056106
  C      -3.049716      1.534383     -1.240507
  C       2.200406     -0.109265      1.381289
  C       3.685434     -0.000744      1.131062
  O       3.978794      0.755557     -0.049293
  C       3.933227      2.074652      0.049083
  O       3.657396      2.702204      1.029594
  H       1.191542     -2.394262     -1.035728
  H       2.838993     -2.023912     -0.588731
  H       1.738667     -2.714572      0.607390
  H       1.537748      0.060744     -0.634708
  H      -0.314988     -1.351057      1.309408
  H      -0.317255      0.379447      1.060324
  H      -0.830576      0.058740     -1.346035
  H      -0.887011     -1.673617     -1.107462
  H      -2.807230     -1.494373      0.419824
  H      -5.007117      1.027845      0.731666
  H      -4.950365     -0.731955      0.580591
  H      -5.473970      0.267322     -0.777341
  H      -3.396222      1.414047     -2.269247
  H      -3.565886      2.402317     -0.831940
  H      -1.985564      1.760318     -1.269832
  H       2.064335     -0.773024      2.239650
  H       1.825871      0.868149      1.685682
  H       4.134826     -0.974002      0.954195
  H       4.177349      0.467659      1.981178
  H       4.187030      2.531253     -0.914220
33
Coordinates from ORCA-job ./output/citronellyl_formate/citronellyl_formate E -106.861949494713
  C       1.810464     -2.003139     -0.220232
  C       1.387487     -0.610492      0.219617
  C      -0.089037     -0.550496      0.586124
  C      -1.031039     -0.651117     -0.601409
  C      -2.461062     -0.618521     -0.179574
  C      -3.375307      0.304037     -0.449993
  C      -4.785200      0.162209      0.036944
  C      -3.110823      1.533024     -1.267566
  C       2.213840     -0.107727      1.395536
  C       3.699997     -0.026046      1.147193
  O       3.999029      0.715076     -0.041476
  C       3.966124      2.035290      0.041923
  O       3.698611      2.676315      1.015762
  H       1.177680     -2.380615     -1.021387
  H       2.832592     -2.016720     -0.596226
  H       1.745661     -2.704843      0.613589
  H       1.551127      0.074733     -0.617190
  H      -0.316427     -1.343519      1.305856
  H      -0.296120      0.392661      1.096737
  H      -0.813104      0.152559     -1.303354
  H      -0.862053     -1.586829     -1.138771
  H      -2.767173     -1.462582      0.434629
  H      -5.049887      0.986285      0.701448
  H      -4.934526     -0.772493      0.572449
  H      -5.486342      0.191660     -0.798990
  H      -3.606272      1.458294     -2.238064
  H      -3.521675      2.413074     -0.772297
  H      -2.050746      1.709380     -1.439322
  H       2.065412     -0.765275      2.256637
  H       1.855091      0.877511      1.693677
  H       4.137795     -1.006097      0.979277
  H       4.197417      0.446026      1.992117
  H       4.218469      2.478381     -0.928112
33
Coordinates from ORCA-job ./output/citronellyl_formate/citronellyl_formate E -106.862119561180
  C       1.801881     -1.981666     -0.220838
  C       1.384839     -0.587549      0.219713
  C      -0.092125     -0.523210      0.587903
  C      -1.035387     -0.625290     -0.599728
  C      -2.468127     -0.617080     -0.182306
  C      -3.398393      0.288853     -0.458405
  C      -4.805780      0.125222      0.028368
  C      -3.154912      1.525895     -1.268925
  C       2.217104     -0.087877      1.393725
  C       3.707017     -0.043320      1.155270
  O       4.033667      0.685951     -0.035382
  C       4.052775      2.006817      0.047427
  O       3.820049      2.656736      1.024466
  H       1.164606     -2.357582     -1.018991
  H       2.822468     -1.998302     -0.600509
  H       1.738469     -2.683474      0.613233
  H       1.549388      0.096286     -0.618241
  H      -0.320311     -1.314438      1.309251
  H      -0.296769      0.420815      1.098125
  H      -0.824810      0.187194     -1.293861
  H      -0.850846     -1.552509     -1.146673
  H      -2.763399     -1.467442      0.428003
  H      -5.085928      0.947981      0.688246
  H      -4.939018     -0.808941      0.569287
  H      -5.506773      0.137398     -0.808009
  H      -3.660974      1.456102     -2.233807
  H      -3.567876      2.397707     -0.760290
  H      -2.099693      1.714780     -1.449879
  H       2.049665     -0.731864      2.261754
  H       1.879234      0.908777      1.678439
  H       4.123280     -1.033383      0.992531
  H       4.211540      0.419653      2.000911
  H       4.315140      2.437762     -0.925257
33
Coordinates from ORCA-job ./output/citronellyl_formate/citronellyl_formate E -106.862261247094
  C       1.802787     -1.966530     -0.220310
  C       1.382599     -0.574035      0.222946
  C      -0.095565     -0.515371      0.592501
  C      -1.039660     -0.621909     -0.596997
  C      -2.476555     -0.620794     -0.187542
  C      -3.411559      0.282439     -0.465754
  C      -4.818771      0.109118      0.017430
  C      -3.181703      1.526549     -1.267007
  C       2.220109     -0.073951      1.394440
  C       3.712628     -0.049658      1.160894
  O       4.060718      0.671031     -0.031224
  C       4.101461      1.991718      0.047443
  O       3.885374      2.646685      1.025300
  H       1.162777     -2.344531     -1.015112
  H       2.822045     -1.979086     -0.603299
  H       1.745560     -2.669496      0.613607
  H       1.542069      0.109946     -0.616287
  H      -0.320315     -1.308314      1.313025
  H      -0.302469      0.426452      1.105533
  H      -0.825998      0.189800     -1.291173
  H      -0.844690     -1.546556     -1.144689
  H      -2.774538     -1.476609      0.412896
  H      -5.111985      0.937206      0.664743
  H      -4.942752     -0.818858      0.571427
  H      -5.516942      0.101249     -0.821499
  H      -3.729122      1.480173     -2.210124
  H      -3.560988      2.395519     -0.727004
  H      -2.134618      1.706180     -1.489437
  H       2.046597     -0.712765      2.265334
  H       1.893180      0.927874      1.673579
  H       4.116720     -1.045058      1.001409
  H       4.222305      0.406955      2.006998
  H       4.371303      2.414629     -0.926498
33
Coordinates from ORCA-job ./output/citronellyl_formate/citronellyl_formate E -106.862315999730
  C       1.803451     -1.959502     -0.229317
  C       1.380669     -0.566888      0.211389
  C      -0.098672     -0.509694      0.579846
  C      -1.046695     -0.630610     -0.606111
  C      -2.482282     -0.628030     -0.190625
  C      -3.417280      0.276559     -0.466012
  C      -4.819551      0.110034      0.033816
  C      -3.195738      1.514729     -1.277987
  C       2.214586     -0.064811      1.385536
  C       3.709269     -0.051220      1.166667
  O       4.076487      0.673996     -0.018465
  C       4.139394      1.993510      0.073265
  O       3.926686      2.640826      1.056759
  H       1.165177     -2.339221     -1.024590
  H       2.823286     -1.970544     -0.610506
  H       1.746176     -2.662525      0.604677
  H       1.540486      0.116743     -0.628282
  H      -0.319962     -1.295967      1.308830
  H      -0.307153      0.436022      1.085606
  H      -0.836487      0.173799     -1.310088
  H      -0.849622     -1.560569     -1.143933
  H      -2.778262     -1.477636      0.419056
  H      -5.106071      0.947413      0.672213
  H      -4.938258     -0.809564      0.602853
  H      -5.526535      0.090254     -0.797517
  H      -3.772028      1.472980     -2.203893
  H      -3.547055      2.390118     -0.729518
  H      -2.154290      1.680204     -1.534273
  H       2.030024     -0.697823      2.258642
  H       1.892044      0.940345      1.657910
  H       4.107164     -1.048596      1.004386
  H       4.215694      0.396039      2.019531
  H       4.425349      2.419631     -0.894314
33
Coordinates from ORCA-job ./output/citronellyl_formate/citronellyl_formate E -106.862367231434
  C       1.809113     -1.959373     -0.242534
  C       1.377751     -0.570183      0.200196
  C      -0.102541     -0.521039      0.566040
  C      -1.052402     -0.669289     -0.615708
  C      -2.485721     -0.643174     -0.192936
  C      -3.407331      0.276629     -0.464322
  C      -4.805849      0.138091      0.054987
  C      -3.178428      1.504911     -1.288195
  C       2.204281     -0.066950      1.379210
  C       3.699425     -0.042081      1.167813
  O       4.070024      0.698275     -0.007626
  C       4.127323      2.017325      0.100034
  O       3.907915      2.651746      1.090515
  H       1.176826     -2.339007     -1.042698
  H       2.831291     -1.964235     -0.617678
  H       1.750270     -2.665905      0.588365
  H       1.535775      0.116391     -0.637436
  H      -0.316742     -1.297560      1.307573
  H      -0.318232      0.430476      1.057714
  H      -0.838724      0.112712     -1.343516
  H      -0.861461     -1.615910     -1.125968
  H      -2.791634     -1.481312      0.427350
  H      -5.074190      0.992154      0.679129
  H      -4.929603     -0.767525      0.644909
  H      -5.523069      0.110289     -0.767256
  H      -3.799685      1.482602     -2.185204
  H      -3.471557      2.393159     -0.726210
  H      -2.146055      1.632267     -1.597451
  H       2.021060     -0.705800      2.248440
  H       1.873552      0.934243      1.655996
  H       4.103442     -1.035458      0.995882
  H       4.200013      0.398155      2.027691
  H       4.415168      2.455377     -0.861558
33
Coordinates from ORCA-job ./output/citronellyl_formate/citronellyl_formate E -106.862396397360
  C       1.812532     -1.961855     -0.256736
  C       1.375054     -0.575721      0.189134
  C      -0.105727     -0.531680      0.553481
  C      -1.058907     -0.710591     -0.621389
  C      -2.488989     -0.657475     -0.190354
  C      -3.395451      0.277438     -0.460142
  C      -4.791017      0.169433      0.074840
  C      -3.151937      1.494046     -1.297072
  C       2.195516     -0.073587      1.372935
  C       3.690244     -0.031743      1.163791
  O       4.054055      0.727999     -0.001059
  C       4.103077      2.045751      0.126555
  O       3.878119      2.663936      1.125912
  H       1.188684     -2.337651     -1.065205
  H       2.838100     -1.962972     -0.622592
  H       1.747157     -2.673249      0.569481
  H       1.532747      0.114347     -0.645623
  H      -0.312949     -1.295001      1.310636
  H      -0.327649      0.427812      1.026617
  H      -0.843723      0.045856     -1.375405
  H      -0.877999     -1.675368     -1.099762
  H      -2.804909     -1.483364      0.441243
  H      -5.038462      1.036706      0.689372
  H      -4.924119     -0.725315      0.679075
  H      -5.516938      0.142239     -0.739757
  H      -3.796935      1.483896     -2.177494
  H      -3.403856      2.394222     -0.734301
  H      -2.125123      1.587933     -1.636021
  H       2.016725     -0.720464      2.237106
  H       1.854493      0.922094      1.657460
  H       4.103136     -1.019191      0.979033
  H       4.185770      0.401827      2.029906
  H       4.389287      2.499691     -0.828115
33
Coordinates from ORCA-job ./output/citronellyl_formate/citronellyl_formate E -106.862412412353
  C       1.812022     -1.963786     -0.267007
  C       1.372932     -0.580157      0.184590
  C      -0.107314     -0.537973      0.549726
  C      -1.062920     -0.741222     -0.619126
  C      -2.491302     -0.667259     -0.185236
  C      -3.386125      0.277832     -0.457581
  C      -4.781375      0.191938      0.082239
  C      -3.127236      1.486691     -1.301202
  C       2.192124     -0.081707      1.370747
  C       3.685629     -0.024041      1.156825
  O       4.036392      0.751488     -0.000964
  C       4.077232      2.067922      0.141572
  O       3.853617      2.673709      1.148778
  H       1.195172     -2.332465     -1.084076
  H       2.840652     -1.964069     -0.624148
  H       1.738378     -2.680868      0.553537
  H       1.530159      0.113532     -0.647194
  H      -0.309482     -1.289814      1.319652
  H      -0.332891      0.428323      1.006860
  H      -0.845887     -0.005693     -1.393086
  H      -0.890308     -1.719487     -1.071998
  H      -2.816021     -1.485193      0.452346
  H      -5.015260      1.066475      0.691748
  H      -4.924429     -0.696958      0.692739
  H      -5.509995      0.169089     -0.730046
  H      -3.784625      1.488092     -2.172523
  H      -3.351019      2.394058     -0.738113
  H      -2.103322      1.555916     -1.654909
  H       2.020853     -0.737171      2.229853
  H       1.843164      0.908514      1.664827
  H       4.106628     -1.005793      0.960429
  H       4.179801      0.405257      2.025803
  H       4.354760      2.534819     -0.809508
33
Coordinates from ORCA-job ./output/citronellyl_formate/citronellyl_formate E -106.862422511907
  C       1.808842     -1.965722     -0.272872
  C       1.370961     -0.583105      0.182628
  C      -0.108557     -0.539737      0.549654
  C      -1.066561     -0.762692     -0.613683
  C      -2.494524     -0.674985     -0.180109
  C      -3.380941      0.277014     -0.455551
  C      -4.777544      0.205358      0.082355
  C      -3.107446      1.482271     -1.300101
  C       2.191859     -0.087759      1.368933
  C       3.684082     -0.018234      1.148245
  O       4.022327      0.769230     -0.004697
  C       4.060066      2.084301      0.149709
  O       3.842733      2.680472      1.164000
  H       1.199157     -2.326677     -1.098665
  H       2.840836     -1.968148     -0.620135
  H       1.724466     -2.687397      0.542594
  H       1.528087      0.112485     -0.647586
  H      -0.307339     -1.280826      1.330818
  H      -0.335418      0.432699      0.992801
  H      -0.848501     -0.043506     -1.402674
  H      -0.899482     -1.750545     -1.046956
  H      -2.826346     -1.489007      0.458898
  H      -5.003135      1.081821      0.692200
  H      -4.930413     -0.682598      0.691842
  H      -5.505176      0.190651     -0.730991
  H      -3.762683      1.490198     -2.172985
  H      -3.322126      2.392769     -0.738494
  H      -2.081644      1.539332     -1.650519
  H       2.027901     -0.749452      2.224590
  H       1.837971      0.898488      1.670714
  H       4.111019     -0.995426      0.942301
  H       4.178918      0.407749      2.018452
  H       4.328614      2.560978     -0.799166
33
Coordinates from ORCA-job ./output/citronellyl_formate/citronellyl_formate E -106.862427276515
  C       1.804796     -1.968169     -0.272068
  C       1.370189     -0.584556      0.183406
  C      -0.108749     -0.537572      0.551955
  C      -1.067577     -0.768505     -0.609040
  C      -2.496296     -0.677934     -0.178002
  C      -3.380199      0.275916     -0.455166
  C      -4.778994      0.206304      0.076755
  C      -3.099763      1.482565     -1.295516
  C       2.193902     -0.089915      1.368109
  C       3.685321     -0.015815      1.142431
  O       4.016629      0.776068     -0.009406
  C       4.055348      2.090511      0.149497
  O       3.844379      2.683081      1.167223
  H       1.199503     -2.324452     -1.103092
  H       2.839112     -1.974745     -0.612215
  H       1.711615     -2.691181      0.541271
  H       1.527859      0.110291     -0.647354
  H      -0.307331     -1.272666      1.338822
  H      -0.334309      0.438292      0.988165
  H      -0.848863     -0.055423     -1.403426
  H      -0.901513     -1.759504     -1.035392
  H      -2.831168     -1.492705      0.458470
  H      -5.004013      1.079953      0.690805
  H      -4.937273     -0.684813      0.680241
  H      -5.503364      0.198881     -0.739594
  H      -3.751543      1.496028     -2.170889
  H      -3.313435      2.391928     -0.731569
  H      -2.072008      1.537432     -1.640296
  H       2.034284     -0.753431      2.223147
  H       1.838894      0.895091      1.672777
  H       4.114889     -0.990964      0.932515
  H       4.181562      0.409339      2.012238
  H       4.318119      2.570669     -0.799249
33
Coordinates from ORCA-job ./output/citronellyl_formate/citronellyl_formate E -106.862428772356
  C       1.803062     -1.970922     -0.269696
  C       1.369246     -0.586220      0.183154
  C      -0.109645     -0.537767      0.552068
  C      -1.068510     -0.772594     -0.608118
  C      -2.497881     -0.681413     -0.179010
  C      -3.379318      0.275209     -0.454807
  C      -4.779257      0.207028      0.074045
  C      -3.094132      1.484334     -1.290011
  C       2.193924     -0.089657      1.366438
  C       3.685023     -0.013291      1.139180
  O       4.014317      0.780100     -0.012391
  C       4.053015      2.094408      0.147967
  O       3.843946      2.685572      1.166922
  H       1.200708     -2.326530     -1.103124
  H       2.838848     -1.979767     -0.605264
  H       1.705057     -2.693295      0.543656
  H       1.526917      0.106906     -0.649079
  H      -0.308244     -1.269860      1.341731
  H      -0.334729      0.439622      0.985139
  H      -0.849268     -0.062220     -1.404874
  H      -0.901903     -1.764790     -1.031501
  H      -2.835352     -1.497686      0.454079
  H      -5.003136      1.078266      0.691937
  H      -4.941196     -0.686651      0.672778
  H      -5.502029      0.205605     -0.743742
  H      -3.739913      1.500577     -2.169706
  H      -3.311995      2.391746     -0.724451
  H      -2.063945      1.541107     -1.627079
  H       2.036637     -0.752990      2.222078
  H       1.838040      0.895048      1.671049
  H       4.116276     -0.987432      0.928065
  H       4.181522      0.411890      2.008826
  H       4.313918      2.575669     -0.800708
33
Coordinates from ORCA-job ./output/citronellyl_formate/citronellyl_formate E -106.862429454032
  C       1.802197     -1.973187     -0.266520
  C       1.369192     -0.587200      0.183188
  C      -0.109815     -0.537243      0.551646
  C      -1.068089     -0.771976     -0.608934
  C      -2.497837     -0.682363     -0.180898
  C      -3.378971      0.275075     -0.454833
  C      -4.779603      0.205024      0.072018
  C      -3.093323      1.486684     -1.286141
  C       2.193911     -0.088645      1.365586
  C       3.684960     -0.012332      1.138515
  O       4.014444      0.780237     -0.013721
  C       4.053113      2.094704      0.145670
  O       3.843504      2.686477      1.164136
  H       1.200882     -2.329598     -1.100355
  H       2.838586     -1.983875     -0.600138
  H       1.701894     -2.694015      0.547914
  H       1.527452      0.104078     -0.650482
  H      -0.309350     -1.268475      1.341870
  H      -0.334243      0.440614      0.984074
  H      -0.848734     -0.061118     -1.405224
  H      -0.900335     -1.763733     -1.032959
  H      -2.835872     -1.500330      0.449643
  H      -5.004121      1.073778      0.693169
  H      -4.942499     -0.691054      0.666904
  H      -5.501402      0.207027     -0.746648
  H      -3.740053      1.506999     -2.165070
  H      -3.309831      2.392123     -0.716858
  H      -2.063383      1.543979     -1.623797
  H       2.036912     -0.750668      2.222312
  H       1.838026      0.896515      1.668686
  H       4.116732     -0.986422      0.928209
  H       4.181269      0.413717      2.007844
  H       4.314389      2.575203     -0.803255
