! wB97X-3c OPT FREQ TightSCF
%pal
  nprocs 40
end
* xyz 0 1
C      2.940449    -2.053612     0.597088
C      1.642385    -1.299751     0.518587
C      1.546506    -0.135539    -0.266727
C      0.321124     0.557998    -0.328095
C     -0.801743     0.101688     0.383438
C     -0.687690    -1.062315     1.162281
C      0.521593    -1.754852     1.228547
C     -2.112446     0.863307     0.303886
C     -3.219115    -0.003289    -0.308776
C     -2.526925     1.395739     1.680760
O      2.682340     0.301561    -0.969266
C      2.725830     1.458599    -1.798031
H      3.237483    -2.392997    -0.417584
H      2.857797    -2.946042     1.253413
H      3.732798    -1.391874     1.006055
H      0.235097     1.453694    -0.928014
H     -1.535320    -1.437411     1.720946
H      0.581486    -2.649115     1.836551
H     -1.988492     1.747348    -0.360892
H     -4.141759     0.600047    -0.446438
H     -2.899810    -0.380632    -1.303842
H     -3.458638    -0.869227     0.344136
H     -1.712589     2.018927     2.108540
H     -3.434748     2.029030     1.585686
H     -2.749509     0.564052     2.382378
H      2.498886     2.365976    -1.199412
H      3.744768     1.560580    -2.224245
H      2.000242     1.358110    -2.632661
*
