28
Coordinates from ORCA-job ./output/carvacrol_methyl_ether/carvacrol_methyl_ether E -88.374754209548
  C           2.95811279474097     -2.02944902737930      0.57329057047055
  C           1.65605135154238     -1.29802395693986      0.51357850567214
  C           1.53415762031792     -0.14158065897981     -0.25830708695833
  C           0.33355507949658      0.54615329475961     -0.32366895100667
  C          -0.78172797248737      0.10319317395834      0.37758353968588
  C          -0.66700431415270     -1.04188340609781      1.14447179234204
  C           0.53810829151089     -1.72351970950495      1.20391002416856
  C          -2.08104081961582      0.86781079652267      0.29130800340553
  C          -3.18594535312826      0.02470009976459     -0.33000188169133
  C          -2.50208483156578      1.41158768907693      1.64953897446605
  O           2.65487544445916      0.24156291212494     -0.91978355556107
  C           2.60753795495219      1.39631801813673     -1.71533875902814
  H           3.26944295397292     -2.35547339397628     -0.41829580440289
  H           2.87836968548883     -2.90297764054227      1.21596167926332
  H           3.75021608486243     -1.38779415101985      0.95712676842215
  H           0.24747839111223      1.43985426219361     -0.92328153258126
  H          -1.51485682980864     -1.41426829297818      1.70286244183061
  H           0.61236871935426     -2.61849406724780      1.80845011929604
  H          -1.90744785336311      1.72217339901312     -0.36737832223733
  H          -4.09784487129033      0.61033515853312     -0.44740836242698
  H          -2.89031409636251     -0.34870342237995     -1.30956725417464
  H          -3.42197169828631     -0.83623997557040      0.29555233451617
  H          -1.71696146283079      2.02772672374228      2.08575214242697
  H          -3.40335705331444      2.01806314628056      1.55911695847300
  H          -2.71514141118568      0.60221125698434      2.34792590252490
  H           2.36869050455938      2.27925563236654     -1.12033925263986
  H           3.59817216412755      1.51313618331840     -2.14396716518168
  H           1.87856152689405      1.29432595584066     -2.52078282907372
