28
Coordinates from ORCA-job ./output/carvacrol_methyl_ether/carvacrol_methyl_ether E -88.362160995106
  C       2.940449     -2.053612      0.597088
  C       1.642385     -1.299751      0.518587
  C       1.546506     -0.135539     -0.266727
  C       0.321124      0.557998     -0.328095
  C      -0.801743      0.101688      0.383438
  C      -0.687690     -1.062315      1.162281
  C       0.521593     -1.754852      1.228547
  C      -2.112446      0.863307      0.303886
  C      -3.219115     -0.003289     -0.308776
  C      -2.526925      1.395739      1.680760
  O       2.682340      0.301561     -0.969266
  C       2.725830      1.458599     -1.798031
  H       3.237483     -2.392997     -0.417584
  H       2.857797     -2.946042      1.253413
  H       3.732798     -1.391874      1.006055
  H       0.235097      1.453694     -0.928014
  H      -1.535320     -1.437411      1.720946
  H       0.581486     -2.649115      1.836551
  H      -1.988492      1.747348     -0.360892
  H      -4.141759      0.600047     -0.446438
  H      -2.899810     -0.380632     -1.303842
  H      -3.458638     -0.869227      0.344136
  H      -1.712589      2.018927      2.108540
  H      -3.434748      2.029030      1.585686
  H      -2.749509      0.564052      2.382378
  H       2.498886      2.365976     -1.199412
  H       3.744768      1.560580     -2.224245
  H       2.000242      1.358110     -2.632661
28
Coordinates from ORCA-job ./output/carvacrol_methyl_ether/carvacrol_methyl_ether E -88.374084935924
  C       2.956087     -2.038156      0.580422
  C       1.653876     -1.297171      0.513237
  C       1.540360     -0.147128     -0.256109
  C       0.337071      0.546646     -0.325448
  C      -0.778547      0.104210      0.373810
  C      -0.666699     -1.046083      1.143971
  C       0.535988     -1.733588      1.209013
  C      -2.078625      0.866767      0.289690
  C      -3.185040      0.015608     -0.327312
  C      -2.496072      1.408842      1.653987
  O       2.652819      0.258578     -0.928555
  C       2.606563      1.413163     -1.724489
  H       3.255993     -2.368158     -0.414099
  H       2.878695     -2.912649      1.222973
  H       3.740389     -1.391377      0.973450
  H       0.260821      1.440718     -0.927753
  H      -1.515774     -1.417746      1.700734
  H       0.599292     -2.626448      1.814754
  H      -1.931147      1.728276     -0.367479
  H      -4.088137      0.611639     -0.467291
  H      -2.874800     -0.365469     -1.300297
  H      -3.432370     -0.832814      0.310948
  H      -1.697917      2.013984      2.083982
  H      -3.383978      2.035467      1.557135
  H      -2.724744      0.599055      2.347042
  H       2.366123      2.291354     -1.121302
  H       3.593506      1.541135     -2.157884
  H       1.876267      1.301346     -2.528821
28
Coordinates from ORCA-job ./output/carvacrol_methyl_ether/carvacrol_methyl_ether E -88.374639904779
  C       2.958452     -2.030070      0.573304
  C       1.655367     -1.295195      0.511358
  C       1.535839     -0.143467     -0.257143
  C       0.333873      0.547221     -0.324659
  C      -0.779780      0.104983      0.374057
  C      -0.665371     -1.041570      1.141196
  C       0.537526     -1.724692      1.202925
  C      -2.079405      0.866000      0.290495
  C      -3.185442      0.019084     -0.327860
  C      -2.497911      1.410803      1.651056
  O       2.651943      0.245043     -0.919286
  C       2.603012      1.398964     -1.712990
  H       3.263585     -2.357854     -0.418803
  H       2.879985     -2.903009      1.215623
  H       3.746155     -1.386339      0.960526
  H       0.253421      1.440230     -0.925106
  H      -1.513888     -1.414015      1.698689
  H       0.605922     -2.618931      1.808135
  H      -1.919253      1.722468     -0.367606
  H      -4.090991      0.610520     -0.459186
  H      -2.881792     -0.360303     -1.301986
  H      -3.428546     -0.833433      0.304735
  H      -1.705506      2.019390      2.083199
  H      -3.390072      2.029033      1.556694
  H      -2.719989      0.603085      2.346996
  H       2.365065      2.279847     -1.115486
  H       3.592528      1.518238     -2.142047
  H       1.875273      1.293970     -2.518521
28
Coordinates from ORCA-job ./output/carvacrol_methyl_ether/carvacrol_methyl_ether E -88.374738346775
  C       2.958310     -2.028434      0.572190
  C       1.655701     -1.296326      0.512052
  C       1.534063     -0.141186     -0.258338
  C       0.332257      0.547186     -0.324160
  C      -0.781774      0.104068      0.375655
  C      -0.666535     -1.041642      1.142201
  C       0.537445     -1.722916      1.202170
  C      -2.081581      0.865943      0.291545
  C      -3.187359      0.021410     -0.327662
  C      -2.500897      1.411457      1.650265
  O       2.654255      0.241968     -0.918451
  C       2.608310      1.396455     -1.713486
  H       3.267483     -2.355469     -0.419352
  H       2.878305     -2.901341      1.215213
  H       3.749059     -1.386131      0.956700
  H       0.248302      1.440725     -0.923868
  H      -1.514648     -1.414336      1.700131
  H       0.609386     -2.617863      1.806979
  H      -1.913227      1.720620     -0.367689
  H      -4.096452      0.609625     -0.450974
  H      -2.888729     -0.355421     -1.304730
  H      -3.426232     -0.835899      0.301090
  H      -1.712336      2.024500      2.084036
  H      -3.398278      2.022903      1.558173
  H      -2.717089      0.603485      2.348700
  H       2.370918      2.279887     -1.119136
  H       3.599861      1.511449     -2.140344
  H       1.881479      1.295283     -2.520598
28
Coordinates from ORCA-job ./output/carvacrol_methyl_ether/carvacrol_methyl_ether E -88.374752571879
  C       2.958285     -2.029231      0.573012
  C       1.656161     -1.297824      0.513120
  C       1.534172     -0.141232     -0.258404
  C       0.333138      0.546439     -0.323880
  C      -0.781866      0.103286      0.376642
  C      -0.667003     -1.042218      1.143357
  C       0.537763     -1.723463      1.202954
  C      -2.081454      0.866879      0.291292
  C      -3.186961      0.023454     -0.328754
  C      -2.501476      1.411982      1.649427
  O       2.655131      0.241737     -0.919147
  C       2.607895      1.396703     -1.714392
  H       3.269327     -2.355866     -0.418433
  H       2.877836     -2.902357      1.216172
  H       3.750319     -1.387491      0.956743
  H       0.247980      1.440270     -0.923557
  H      -1.515083     -1.414689      1.701374
  H       0.611277     -2.618568      1.807510
  H      -1.909159      1.721024     -0.368118
  H      -4.097966      0.610054     -0.447877
  H      -2.890766     -0.351595     -1.307537
  H      -3.423820     -0.836344      0.298012
  H      -1.715026      2.027309      2.084440
  H      -3.401633      2.019972      1.558525
  H      -2.715069      0.603398      2.348539
  H       2.369331      2.279975     -1.119801
  H       3.598989      1.512970     -2.142316
  H       1.879678      1.295427     -2.520594
28
Coordinates from ORCA-job ./output/carvacrol_methyl_ether/carvacrol_methyl_ether E -88.374753909526
  C       2.958165     -2.029420      0.573226
  C       1.656103     -1.298066      0.513402
  C       1.534153     -0.141478     -0.258399
  C       0.333406      0.546163     -0.323812
  C      -0.781863      0.103112      0.377137
  C      -0.667116     -1.042163      1.143951
  C       0.537940     -1.723610      1.203465
  C      -2.081294      0.867419      0.291212
  C      -3.186531      0.024170     -0.329353
  C      -2.501743      1.411905      1.649366
  O       2.655100      0.241748     -0.919517
  C       2.607861      1.396663     -1.714919
  H       3.269467     -2.355785     -0.418264
  H       2.878102     -2.902714      1.216200
  H       3.750323     -1.387722      0.956883
  H       0.247732      1.439932     -0.923415
  H      -1.515093     -1.414570      1.702134
  H       0.611976     -2.618654      1.807974
  H      -1.908116      1.721574     -0.367918
  H      -4.098141      0.610144     -0.447246
  H      -2.890918     -0.350004     -1.308647
  H      -3.422768     -0.836320      0.296752
  H      -1.716092      2.027829      2.084973
  H      -3.402676      2.018859      1.558849
  H      -2.714821      0.602927      2.348221
  H       2.368898      2.279662     -1.120059
  H       3.598702      1.513433     -2.143159
  H       1.879248      1.294966     -2.520729
28
Coordinates from ORCA-job ./output/carvacrol_methyl_ether/carvacrol_methyl_ether E -88.374754209548
  C       2.958113     -2.029449      0.573291
  C       1.656051     -1.298024      0.513579
  C       1.534158     -0.141581     -0.258307
  C       0.333555      0.546153     -0.323669
  C      -0.781728      0.103193      0.377584
  C      -0.667004     -1.041883      1.144472
  C       0.538108     -1.723520      1.203910
  C      -2.081041      0.867811      0.291308
  C      -3.185945      0.024700     -0.330002
  C      -2.502085      1.411588      1.649539
  O       2.654875      0.241563     -0.919784
  C       2.607538      1.396318     -1.715339
  H       3.269443     -2.355473     -0.418296
  H       2.878370     -2.902978      1.215962
  H       3.750216     -1.387794      0.957127
  H       0.247478      1.439854     -0.923282
  H      -1.514857     -1.414268      1.702862
  H       0.612369     -2.618494      1.808450
  H      -1.907448      1.722173     -0.367378
  H      -4.097845      0.610335     -0.447408
  H      -2.890314     -0.348703     -1.309567
  H      -3.421972     -0.836240      0.295552
  H      -1.716961      2.027727      2.085752
  H      -3.403357      2.018063      1.559117
  H      -2.715141      0.602211      2.347926
  H       2.368691      2.279256     -1.120339
  H       3.598172      1.513136     -2.143967
  H       1.878562      1.294326     -2.520783
