! wB97X-3c OPT FREQ TightSCF
%pal
  nprocs 40
end
* xyz 0 1
C      5.244162     1.446176    -0.229878
C      3.853100     0.917278    -0.442338
C      3.645472    -0.133801    -1.251023
C      2.252679    -0.675703    -1.415841
C      1.552749    -0.820696    -0.043160
C      1.813304     0.400595     0.913110
C      2.668305     1.512959     0.280058
C      0.061348    -1.194771    -0.272121
C     -0.884990    -0.092097    -0.629737
O     -0.836468    -0.659101     0.670145
C     -2.191438    -0.417448    -1.381081
C     -3.362881    -0.673086    -0.461446
C     -3.972824     0.282108     0.276275
C     -5.149753    -0.078421     1.145151
C     -3.537847     1.725816     0.232376
C     -0.275893    -2.652628    -0.614763
H      5.243318     2.311581     0.465110
H      5.887304     0.649114     0.199375
H      5.671487     1.776437    -1.200166
H      4.476251    -0.620027    -1.755069
H      1.678404     0.025190    -2.060536
H      2.297481    -1.659529    -1.930984
H      2.025263    -1.698578     0.452567
H      0.882285     0.864963     1.294110
H      2.351272     0.032143     1.814833
H      2.994211     2.224116     1.069090
H      2.049001     2.076896    -0.450954
H     -0.509518     0.952611    -0.633348
H     -2.049288    -1.293990    -2.046160
H     -2.433146     0.427895    -2.058630
H     -3.736984    -1.692690    -0.423893
H     -5.336005    -1.173661     1.167692
H     -4.960769     0.261250     2.185138
H     -6.060644     0.426436     0.760790
H     -3.589165     2.112059    -0.806867
H     -4.199923     2.355836     0.863515
H     -2.503399     1.826184     0.619566
H      0.347139    -3.338912    -0.004405
H     -1.339580    -2.892399    -0.403995
H     -0.064020    -2.840105    -1.687860
*
