34
Coordinates from ORCA-job ./output/linalyl_acetate/linalyl_acetate E -112.538261109472
  C           3.30960464913209     -0.68994747468901     -0.89036804235088
  C           3.05523038231028      0.27983781413170      0.22155972104568
  C           1.86737144237118      0.79775647010354      0.51986568172002
  C           0.55690024744055      0.53405392051719     -0.14880569196046
  C          -0.37665405060504     -0.25429279683245      0.75890848243415
  C          -1.70109546699584     -0.65796553956150      0.12504375203875
  C          -2.66233372973668     -1.22073759311934      1.16119122537311
  C          -1.55656149844806     -1.66557031534306     -0.98738749609165
  C          -0.57207106407404     -2.52991746531193     -1.15463565365820
  O          -2.32526066910349      0.46603818292072     -0.55830382494085
  C          -2.64364689069206      1.59350766751923      0.07615140141613
  O          -2.45457167200731      1.80305560931659      1.24422803668746
  C          -3.26658040963614      2.57400188462639     -0.86891342878786
  C           4.27455387124516      0.64735699541069      1.01071607935055
  H           4.02496139061951     -0.27361410576869     -1.60190035362842
  H           3.75737186208958     -1.60438624731154     -0.49704944919263
  H           2.41263539910221     -0.96337622622231     -1.43740491634968
  H           1.82014100676194      1.48193535654200      1.36252175013353
  H           0.09257548707907      1.49192473285087     -0.39075324789117
  H           0.68884925528597      0.01304082579515     -1.09355815944914
  H          -0.58087041176909      0.31891796359783      1.66060750939876
  H           0.11926259082057     -1.16918945371467      1.08365658127072
  H          -2.22484726802586     -2.11496085630826      1.60014291255521
  H          -3.60447069420528     -1.50019270542305      0.69194377489092
  H          -2.85501403527042     -0.49597742211477      1.94650978210980
  H          -2.39647020332939     -1.67779054102025     -1.67301526884975
  H          -0.60421310352479     -3.24612788424112     -1.96432545201400
  H           0.29340652179525     -2.56587112937218     -0.50630279729553
  H          -2.57193887483758      2.79739172472592     -1.67543716534212
  H          -4.15788846077956      2.13925550591496     -1.31506725466485
  H          -3.52057466128809      3.48060799111563     -0.33169158112607
  H           5.03080437051993      1.09947103348347      0.36656248906902
  H           4.72904230185991     -0.23857506768415      1.45760969805032
  H           4.04235138589555      1.35034014546639      1.80770190604910
