26
Coordinates from ORCA-job ./output/_e_beta_ocimene/_e_beta_ocimene E -66.571672031054
  C          -3.42170593575596     -0.42115026946201      0.08287384107354
  C          -2.22012056630558      0.46019684121165     -0.07351515867928
  C          -1.31532576536609      0.55242329527489      0.89605655585129
  C          -0.05246945187378      1.36168436276339      0.90954836763376
  C           1.13906391434532      0.53245449844323      1.29530647768506
  C           1.83859305507441     -0.26983680472104      0.49125071046168
  C           1.52789592776153     -0.46054045273184     -0.95846442681412
  C           2.97032866442998     -1.01281619019744      1.05266135886224
  C           3.76329227353056     -1.84422034186421      0.38727390046495
  C          -2.15832975589278      1.18807402560989     -1.37993217592924
  H          -4.34223289918342      0.15907541193271     -0.00028388238331
  H          -3.45131684949340     -1.17641837126809     -0.70442056379006
  H          -3.42554596316550     -0.93095711552369      1.04369957724642
  H          -1.48371308921728     -0.03421983335288      1.79406920515035
  H          -0.15867590020854      2.17027482692216      1.63595865251356
  H           0.11685578095586      1.84171435672754     -0.05110717368465
  H           1.43749784137421      0.57859712874985      2.33754824662133
  H           1.32499049824753     -1.51121524302948     -1.16664588462410
  H           2.37467753677854     -0.16403919581698     -1.57806178687406
  H           0.65811059943666      0.10926317924206     -1.26840687051695
  H           3.15659822070232     -0.84904775568241      2.10865831422510
  H           3.63064479063538     -2.04963232144871     -0.66663011019860
  H           4.57906051159587     -2.34956537232705      0.88539846253535
  H          -1.28846736759943      1.82985869799561     -1.47885004988371
  H          -3.04533699813674      1.81143881014616     -1.50592700945613
  H          -2.15437007266965      0.47860383240669     -2.20953557749041
