! wB97X-3c OPT FREQ TightSCF
%pal
  nprocs 40
end
* xyz 0 1
C     -3.575053    -0.334056     0.030475
C     -2.407066     0.597914    -0.162690
C     -1.222992     0.279324     0.401156
C      0.010930     1.138691     0.268084
C      1.182693     0.522994     0.984935
C      1.928800    -0.491909     0.503032
C      1.656099    -1.109718    -0.850784
C      3.088199    -0.946541     1.313643
C      4.094727    -1.669743     0.821769
C     -2.580492     1.858033    -0.976919
H     -3.800770    -0.433276     1.113412
H     -4.486508     0.037862    -0.482053
H     -3.328155    -1.335264    -0.382123
H     -1.150864    -0.642122     0.976099
H     -0.197064     2.128584     0.727606
H      0.263637     1.308386    -0.800450
H      1.436838     0.955053     1.946892
H      1.913352    -2.189220    -0.843326
H      2.263433    -0.593333    -1.623047
H      0.586336    -1.053003    -1.134153
H      3.144767    -0.652910     2.355810
H      4.137771    -1.965992    -0.217294
H      4.914537    -1.956705     1.467524
H     -2.354812     2.747504    -0.352070
H     -3.619315     1.959743    -1.353875
H     -1.899029     1.839704    -1.853130
*
