! wB97X-3c OPT FREQ TightSCF
%pal
  nprocs 40
end
* xyz 0 1
C      1.832507     2.596983    -0.551190
C      1.312597     1.381946    -1.279728
C      0.002321     1.044970    -1.274685
C     -1.026831     1.621037    -0.337510
C     -1.443960     0.543586     0.652126
C     -2.589642    -0.177799     0.497285
C     -3.472741    -0.003917    -0.715178
C     -3.041323    -1.185609     1.527037
C     -0.501812     0.286867     1.775740
O     -0.254497     1.221804     2.583505
C      0.242638    -1.022222     1.924058
C      1.129764    -1.279169     0.725188
C      2.236241    -0.521254     0.561985
C      3.029989    -0.425970    -0.725618
C      2.316026     0.388021    -1.837294
C      0.748677    -2.351038    -0.267727
H      1.650770     2.500966     0.539628
H      2.926219     2.710127    -0.705914
H      1.332399     3.510337    -0.936391
H     -0.319202     0.179386    -1.846452
H     -0.650301     2.502552     0.219051
H     -1.875622     2.004192    -0.936998
H     -2.878364    -0.130747    -1.644414
H     -3.945087     1.000590    -0.701516
H     -4.285393    -0.760309    -0.738678
H     -2.593903    -2.175617     1.303865
H     -2.772072    -0.864464     2.555313
H     -4.145833    -1.298343     1.508552
H      0.869049    -0.998285     2.842910
H     -0.470300    -1.854379     2.071175
H      2.503137     0.185398     1.344152
H      3.290511    -1.439950    -1.097294
H      3.989639     0.082362    -0.488619
H      1.823885    -0.313784    -2.545158
H      3.076226     0.935261    -2.435566
H     -0.197912    -2.852140     0.023017
H      1.548225    -3.119820    -0.311424
H      0.603975    -1.921570    -1.277232
*
