38
Coordinates from ORCA-job ./output/germacrone/germacrone E -114.734902567134
  C           1.89030013352142      2.57783162588388     -0.51869847018479
  C           1.38221588936585      1.36736514957525     -1.23331630967849
  C           0.10748650725088      0.99634421775917     -1.29347343754355
  C          -1.04987668189580      1.52167017440527     -0.50338811615419
  C          -1.46446586634003      0.47690494850735      0.50991543248951
  C          -2.61833309049796     -0.19184945494153      0.50080633553946
  C          -3.64801883781995     -0.05756683508324     -0.58068111103696
  C          -3.05449580753907     -1.10336926220662      1.61070691062279
  C          -0.45289096720744      0.29479311910775      1.60893235539844
  O          -0.07628080801597      1.25309497018086      2.24157793927999
  C           0.19860644722124     -1.06178555603086      1.81986283317944
  C           1.16679214521403     -1.29386181193775      0.67721761932709
  C           2.23780921958641     -0.51686596084433      0.57838001019482
  C           3.12892130910968     -0.34880398419199     -0.61621895601534
  C           2.43049540189191      0.43195314098389     -1.76495007364980
  C           0.75669848991676     -2.31100708931986     -0.33614269162697
  H           2.54207163018680      2.30104805021226      0.31055371296516
  H           2.48586640492539      3.18628147542245     -1.20121218395651
  H           1.09615840382733      3.19948333346324     -0.11786260844199
  H          -0.11628625376129      0.09234117901143     -1.85193931089852
  H          -0.78239131219377      2.42038855577966      0.04799057735865
  H          -1.88568908552020      1.78121074589964     -1.14779426334128
  H          -3.25718742609951      0.36062174759169     -1.50227299979288
  H          -4.47704673286303      0.56825770409464     -0.24520427270829
  H          -4.06813509685728     -1.03735702838831     -0.81128693664130
  H          -3.05195965876979     -2.14645761685890      1.28817980907125
  H          -2.45314932491886     -1.01313286645048      2.50977395002398
  H          -4.08261436474177     -0.86488139140955      1.88673045699160
  H           0.71291219160681     -1.02824929549388      2.77806463956559
  H          -0.54188653987964     -1.85689880936151      1.84350047112386
  H           2.39375085100145      0.19308899093949      1.38391765564782
  H           3.46849952843384     -1.30960384497906     -1.00374044694996
  H           4.02707863921210      0.18548911177704     -0.30838363814681
  H           1.95635893253964     -0.27806368004836     -2.44151687466710
  H           3.18934261015649      0.96447708208652     -2.34162423903633
  H          -0.22314415528848     -2.06811274851612     -0.75053755682864
  H           0.66771898858382     -3.29368367853055      0.13111041866869
  H           1.46476828665802     -2.39109540808858     -1.15697563014844
