40
Coordinates from ORCA-job ./output/caryophyllene_oxide/caryophyllene_oxide E -115.942200421899
  C          -3.02339959520685     -0.53346047742963      0.75218495915858
  C          -2.43523237041490     -0.05158514530161     -0.56162500114672
  C          -2.06775617318875      1.44512227404180     -0.50351980549833
  C          -0.62486217340725      1.06261964669666     -0.12905386303762
  C          -0.92040372658571     -0.34048322739484     -0.70075554022729
  C          -0.28147230476791     -1.56266966051136     -0.08332554722856
  C           1.24798263534987     -1.50812534504457     -0.18250245658323
  C           1.91377572850718     -1.19848069455979      1.13804057191692
  C           2.62251880272215      0.06433129167723      1.36536210581589
  O           1.32443342949097     -0.14644991578084      1.89296031386816
  C           2.80676371021505      1.16124465686764      0.33954893677486
  C           1.67815984498405      2.19708385563737      0.25136405484228
  C           0.53557198956216      1.84913446223387     -0.67160231833194
  C           0.57859278701930      2.24260778169168     -1.93934980543139
  C           2.27576681058810     -2.40027582988251      1.96326386138649
  C          -3.29904356816312     -0.49148709580757     -1.72314576624446
  H          -2.42523379923235     -0.22159254813819      1.60774896329239
  H          -4.02697502412500     -0.12666014511416      0.88493473467775
  H          -3.10055924631159     -1.62122006059213      0.77714946225289
  H          -2.61116266069510      2.06581465347646      0.20918495171047
  H          -2.12444275300120      1.91111097415891     -1.48617480373025
  H          -0.53403800160224      0.99453164948037      0.95132509716036
  H          -0.67389149789644     -0.32110646984236     -1.76665421230582
  H          -0.57808573408275     -1.65546384979423      0.96189855815022
  H          -0.65815547435848     -2.45173633424216     -0.59334409284744
  H           1.64179804144507     -2.46259228889800     -0.53224226885331
  H           1.53117966244728     -0.77305991027011     -0.93510896690494
  H           3.39036666910690      0.04442094296966      2.13527566560690
  H           3.72287976909433      1.68977843531340      0.60395217997194
  H           2.98367515882892      0.73605194448314     -0.64941303378801
  H           1.29574991166352      2.39616744004873      1.25301719222200
  H           2.12108248947969      3.12588265845241     -0.10707455411755
  H          -0.21189179636011      2.01011784647647     -2.64132403708564
  H           1.41285847813889      2.81559851415470     -2.32414673014589
  H           2.66044985082731     -2.09833118871762      2.93482904480036
  H           1.39734598313756     -3.02607605843797      2.12365296787130
  H           3.02955847477849     -3.00109365880675      1.45576197017981
  H          -2.89265745836728     -0.13900475261457     -2.67135420044005
  H          -4.31366463691631     -0.10082063877575     -1.62814970894457
  H          -3.36758123270342     -1.57984273190375     -1.77158987876657
