! wB97X-3c OPT FREQ TightSCF
%pal
  nprocs 40
end
* xyz 0 1
C     -3.253883    -0.811201     0.372693
C     -2.386215    -0.009764    -0.619457
C     -2.117053     1.422735    -0.120786
C     -0.640910     1.065871     0.086928
C     -0.863261    -0.300413    -0.574573
C     -0.369668    -1.508040     0.255595
C      1.141845    -1.773313     0.052481
C      2.055479    -1.260048     1.195025
C      2.798695     0.045753     1.136005
O      1.566124    -0.092622     1.807711
C      2.697239     0.996541    -0.078875
C      1.715641     2.175120     0.108408
C      0.406704     1.920780    -0.607985
C      0.268954     2.324763    -1.884355
C      2.511005    -2.274738     2.244960
C     -2.974344    -0.057353    -2.040388
H     -2.861109    -0.736146     1.408766
H     -4.290976    -0.413219     0.373879
H     -3.290911    -1.880685     0.076648
H     -2.627572     1.671177     0.836380
H     -2.290698     2.205008    -0.890314
H     -0.458968     0.992866     1.179090
H     -0.444839    -0.344318    -1.606462
H     -0.610298    -1.398405     1.334694
H     -0.918823    -2.403494    -0.107704
H      1.277745    -2.875822     0.000435
H      1.485452    -1.426039    -0.939565
H      3.613540     0.225949     1.869315
H      3.712472     1.428592    -0.211482
H      2.504937     0.458827    -1.026849
H      1.532212     2.379256     1.185320
H      2.182631     3.102506    -0.292365
H     -0.617424     2.096850    -2.462489
H      1.058902     2.880234    -2.380722
H      3.040543    -1.785097     3.090570
H      1.628687    -2.814227     2.649163
H      3.197440    -3.008625     1.773807
H     -2.370511     0.542223    -2.752504
H     -4.009467     0.345522    -2.038445
H     -2.999316    -1.107003    -2.402554
*
