28
Coordinates from ORCA-job ./output/benzyl_benzoate/benzyl_benzoate E -119.085485888376
  C           4.21305503348103      0.15890334116786      1.07439019336622
  C           3.71595751377924      1.07187511620168      0.16085541748740
  C           2.69759609805310      0.70737782143559     -0.70232289757233
  C           2.17051495311547     -0.57485761043335     -0.66122377935237
  C           2.67419800197529     -1.48484674036775      0.25753410992503
  C           3.68965027375661     -1.12212880194793      1.12298111700780
  C           1.06216085974519     -0.97858284788773     -1.58388936123211
  O          -0.21831406205305     -0.87380085320697     -0.94661993359818
  C          -0.82264610121571      0.31460068803595     -0.98835005075077
  O          -0.36863142953720      1.26980779750416     -1.56059711936669
  C          -2.11863753447234      0.32394573216702     -0.26268028173584
  C          -2.86233964797217      1.49462793276228     -0.27736783266360
  C          -4.07384226862160      1.55181480398498      0.38297154408430
  C          -4.54463882380614      0.43978902256806      1.06142425977566
  C          -3.80256838919523     -0.72891795781692      1.07883533695784
  C          -2.59017757856688     -0.78911537453206      0.41768228539549
  H           5.00942950555072      0.44435579956058      1.74791340059903
  H           4.12147628753357      2.07335724090630      0.12074180657473
  H           2.29574350460193      1.42317940683837     -1.40563963807565
  H           2.26794101360404     -2.48753818202003      0.29357713271000
  H           4.07651018903713     -1.83981935384059      1.83312122551291
  H           1.05868673672916     -0.37358546729913     -2.48647177838419
  H           1.14523245772705     -2.02786734067987     -1.85314315198248
  H          -2.47538796182982      2.35023904654445     -0.81121612005365
  H          -4.65282555883124      2.46454463395065      0.37014526106551
  H          -5.49302394394125      0.48466679112342      1.57912842329802
  H          -4.16970805906549     -1.59595950475889      1.60983447685307
  H          -2.00540806958141     -1.69606313996013      0.42838495415485
