! wB97X-3c OPT FREQ TightSCF
%pal
  nprocs 40
end
* xyz 0 1
C     -1.486177     0.764071     0.414085
C     -0.817620    -0.056422    -0.688579
C      0.255261    -1.005644    -0.140458
C      1.444265    -0.256638     0.378201
O      1.596262    -0.091438     1.618182
O      2.366174     0.282397    -0.513570
H     -1.936764     0.093180     1.176150
H     -0.748559     1.434154     0.903758
H     -2.290314     1.390336    -0.026420
H     -1.597946    -0.660640    -1.199910
H     -0.371641     0.628028    -1.443088
H      0.592443    -1.676740    -0.959212
H     -0.174687    -1.646312     0.660533
H      3.169303     0.801668    -0.179671
*
