14
Coordinates from ORCA-job ./output/butyric_acid/butyric_acid E -59.740683280157
  C      -1.486177      0.764071      0.414085
  C      -0.817620     -0.056422     -0.688579
  C       0.255261     -1.005644     -0.140458
  C       1.444265     -0.256638      0.378201
  O       1.596262     -0.091438      1.618182
  O       2.366174      0.282397     -0.513570
  H      -1.936764      0.093180      1.176150
  H      -0.748559      1.434154      0.903758
  H      -2.290314      1.390336     -0.026420
  H      -1.597946     -0.660640     -1.199910
  H      -0.371641      0.628028     -1.443088
  H       0.592443     -1.676740     -0.959212
  H      -0.174687     -1.646312      0.660533
  H       3.169303      0.801668     -0.179671
14
Coordinates from ORCA-job ./output/butyric_acid/butyric_acid E -59.759866515733
  C      -1.472290      0.765840      0.409579
  C      -0.798295     -0.050542     -0.684430
  C       0.273264     -0.998044     -0.144761
  C       1.443551     -0.255692      0.394809
  O       1.620461     -0.079518      1.581390
  O       2.282931      0.253918     -0.520011
  H      -1.920527      0.110587      1.157064
  H      -0.757312      1.421039      0.907270
  H      -2.260162      1.385657     -0.019698
  H      -1.553535     -0.647628     -1.199219
  H      -0.357187      0.619407     -1.425546
  H       0.612137     -1.653927     -0.950870
  H      -0.131405     -1.617845      0.650620
  H       3.018369      0.746747     -0.156196
14
Coordinates from ORCA-job ./output/butyric_acid/butyric_acid E -59.762089534987
  C      -1.461257      0.771406      0.403966
  C      -0.798065     -0.054877     -0.684656
  C       0.279159     -0.997942     -0.152940
  C       1.439708     -0.249078      0.410634
  O       1.647392     -0.088085      1.579278
  O       2.237943      0.249599     -0.528462
  H      -1.910421      0.128819      1.158211
  H      -0.745493      1.420811      0.902653
  H      -2.244764      1.396125     -0.018576
  H      -1.549620     -0.656062     -1.193642
  H      -0.362454      0.602481     -1.435977
  H       0.627485     -1.640401     -0.959637
  H      -0.116356     -1.621958      0.641634
  H       2.956742      0.739162     -0.122485
14
Coordinates from ORCA-job ./output/butyric_acid/butyric_acid E -59.762368074935
  C      -1.433709      0.781083      0.398037
  C      -0.796433     -0.067535     -0.686328
  C       0.275989     -1.017866     -0.159462
  C       1.440103     -0.275305      0.419937
  O       1.651501     -0.113981      1.589234
  O       2.193084      0.292509     -0.527536
  H      -1.889355      0.156132      1.164784
  H      -0.702269      1.420535      0.889248
  H      -2.209016      1.419738     -0.020694
  H      -1.560276     -0.666124     -1.182032
  H      -0.360432      0.572471     -1.453798
  H       0.628757     -1.652852     -0.969651
  H      -0.125863     -1.647076      0.630699
  H       2.887920      0.798269     -0.092439
14
Coordinates from ORCA-job ./output/butyric_acid/butyric_acid E -59.762484111574
  C      -1.431789      0.788172      0.391205
  C      -0.810681     -0.075928     -0.687523
  C       0.274481     -1.013517     -0.166199
  C       1.427353     -0.255164      0.429202
  O       1.679848     -0.149418      1.599746
  O       2.193787      0.312336     -0.523626
  H      -1.879648      0.176574      1.175542
  H      -0.693299      1.432630      0.868708
  H      -2.211738      1.426008     -0.023325
  H      -1.578955     -0.687672     -1.163288
  H      -0.388770      0.550542     -1.475861
  H       0.646159     -1.632341     -0.981273
  H      -0.121157     -1.661091      0.615598
  H       2.894408      0.788870     -0.058905
14
Coordinates from ORCA-job ./output/butyric_acid/butyric_acid E -59.762668247235
  C      -1.428208      0.788663      0.391435
  C      -0.806719     -0.075654     -0.687960
  C       0.273360     -1.017704     -0.163202
  C       1.429083     -0.266410      0.425084
  O       1.675297     -0.157306      1.594528
  O       2.184961      0.322736     -0.517977
  H      -1.875985      0.176722      1.174673
  H      -0.689367      1.433599      0.866467
  H      -2.207689      1.425350     -0.024506
  H      -1.576841     -0.683770     -1.164169
  H      -0.381357      0.551387     -1.473101
  H       0.641748     -1.640975     -0.976792
  H      -0.124948     -1.660506      0.619111
  H       2.886664      0.803868     -0.063591
14
Coordinates from ORCA-job ./output/butyric_acid/butyric_acid E -59.762707486679
  C      -1.420879      0.792790      0.388038
  C      -0.806658     -0.079103     -0.689306
  C       0.271977     -1.021747     -0.162916
  C       1.427175     -0.273356      0.426624
  O       1.685350     -0.184266      1.594880
  O       2.166396      0.344264     -0.511038
  H      -1.865750      0.186973      1.177457
  H      -0.678420      1.439468      0.854864
  H      -2.201033      1.428686     -0.027474
  H      -1.580718     -0.687584     -1.158347
  H      -0.382293      0.542063     -1.479263
  H       0.643293     -1.643604     -0.976471
  H      -0.127104     -1.665836      0.617353
  H       2.868664      0.821250     -0.054399
14
Coordinates from ORCA-job ./output/butyric_acid/butyric_acid E -59.762797175060
  C      -1.395148      0.808533      0.373607
  C      -0.808329     -0.092258     -0.694865
  C       0.266483     -1.034648     -0.161781
  C       1.421086     -0.295359      0.433492
  O       1.735375     -0.292841      1.591145
  O       2.093902      0.426507     -0.479118
  H      -1.827006      0.226216      1.187200
  H      -0.639521      1.462795      0.807847
  H      -2.179300      1.440345     -0.039938
  H      -1.596517     -0.702901     -1.136295
  H      -0.388965      0.506562     -1.503456
  H       0.648289     -1.652387     -0.974482
  H      -0.134363     -1.683770      0.612197
  H       2.804013      0.883207     -0.015552
14
Coordinates from ORCA-job ./output/butyric_acid/butyric_acid E -59.762838077081
  C      -1.385117      0.816301      0.365101
  C      -0.809629     -0.098197     -0.697964
  C       0.263334     -1.038935     -0.159713
  C       1.420710     -0.304810      0.437481
  O       1.772421     -0.355287      1.583391
  O       2.055013      0.470058     -0.458981
  H      -1.810612      0.244920      1.189787
  H      -0.623883      1.474638      0.783487
  H      -2.171575      1.445509     -0.048134
  H      -1.603644     -0.709954     -1.127269
  H      -0.392332      0.490494     -1.514724
  H       0.648588     -1.658380     -0.969974
  H      -0.137998     -1.688608      0.613547
  H       2.774725      0.912253      0.003967
14
Coordinates from ORCA-job ./output/butyric_acid/butyric_acid E -59.762879505221
  C      -1.381285      0.823270      0.355634
  C      -0.810132     -0.102072     -0.700868
  C       0.259568     -1.039848     -0.154045
  C       1.425961     -0.313682      0.441139
  O       1.826340     -0.428101      1.566584
  O       2.015138      0.515801     -0.436678
  H      -1.804302      0.259868      1.187309
  H      -0.616871      1.485072      0.763108
  H      -2.168711      1.449990     -0.059970
  H      -1.606949     -0.714654     -1.124048
  H      -0.392208      0.479620     -1.522274
  H       0.644088     -1.668832     -0.957834
  H      -0.142419     -1.685068      0.623254
  H       2.751782      0.938636      0.018691
14
Coordinates from ORCA-job ./output/butyric_acid/butyric_acid E -59.762890601953
  C      -1.386734      0.822857      0.354358
  C      -0.808682     -0.100202     -0.700685
  C       0.258578     -1.037123     -0.149798
  C       1.431794     -0.314860      0.440253
  O       1.845188     -0.443614      1.559429
  O       2.011375      0.522269     -0.436509
  H      -1.815080      0.256892      1.181673
  H      -0.624383      1.483424      0.767731
  H      -2.171762      1.450480     -0.064604
  H      -1.602569     -0.712386     -1.130112
  H      -0.387319      0.484082     -1.518677
  H       0.638776     -1.674782     -0.948914
  H      -0.144072     -1.676508      0.632441
  H       2.754891      0.939471      0.013415
14
Coordinates from ORCA-job ./output/butyric_acid/butyric_acid E -59.762893761044
  C      -1.389313      0.822349      0.353744
  C      -0.807502     -0.099291     -0.700468
  C       0.257846     -1.035883     -0.147067
  C       1.435126     -0.316075      0.438785
  O       1.855906     -0.451368      1.554312
  O       2.008202      0.526622     -0.436948
  H      -1.822685      0.254912      1.177444
  H      -0.627624      1.480444      0.772384
  H      -2.171357      1.452128     -0.067522
  H      -1.599564     -0.710895     -1.134164
  H      -0.383681      0.486432     -1.516220
  H       0.635139     -1.679344     -0.943023
  H      -0.145291     -1.671192      0.638350
  H       2.754798      0.941161      0.010394
14
Coordinates from ORCA-job ./output/butyric_acid/butyric_acid E -59.762894576517
  C      -1.390353      0.822026      0.353551
  C      -0.807072     -0.098972     -0.700343
  C       0.257592     -1.035388     -0.145778
  C       1.436336     -0.316545      0.437786
  O       1.860283     -0.453796      1.551799
  O       2.006883      0.528523     -0.437429
  H      -1.826898      0.254029      1.175170
  H      -0.628716      1.478103      0.775395
  H      -2.170259      1.453639     -0.068862
  H      -1.598297     -0.710331     -1.135879
  H      -0.382206      0.487278     -1.515169
  H       0.633777     -1.681381     -0.940281
  H      -0.145642     -1.668996      0.640928
  H       2.754572      0.941809      0.009114
14
Coordinates from ORCA-job ./output/butyric_acid/butyric_acid E -59.762894745276
  C      -1.390609      0.821878      0.353568
  C      -0.807057     -0.098937     -0.700303
  C       0.257616     -1.035241     -0.145457
  C       1.436467     -0.316493      0.437377
  O       1.861029     -0.453647      1.551212
  O       2.006766      0.528784     -0.437788
  H      -1.828518      0.253791      1.174392
  H      -0.628843      1.476935      0.776735
  H      -2.169498      1.454488     -0.069199
  H      -1.598062     -0.710324     -1.136157
  H      -0.382000      0.487373     -1.514961
  H       0.633675     -1.681704     -0.939647
  H      -0.145546     -1.668592      0.641456
  H       2.754582      0.941691      0.008773
