29
Coordinates from ORCA-job ./output/menthone/menthone E -83.912245138567
  C       3.397875     -0.436031     -0.402603
  C       2.253867      0.222013      0.379265
  C       1.469607      1.231387     -0.513416
  C       0.039908      0.772827     -0.839331
  C      -0.770791      0.535335      0.458617
  C       0.036284     -0.287246      1.441129
  O      -0.383151     -0.479105      2.572796
  C       1.360018     -0.863683      1.023382
  C      -2.176974     -0.089444      0.213651
  C      -2.127526     -1.490545     -0.420254
  C      -3.078658      0.837434     -0.614516
  H       4.103961      0.338235     -0.771749
  H       2.999484     -1.002982     -1.271418
  H       3.961957     -1.132271      0.254367
  H       2.719456      0.801710      1.208150
  H       2.006147      1.428207     -1.467664
  H       1.408322      2.208145      0.015935
  H       0.100671     -0.152015     -1.450063
  H      -0.450692      1.558103     -1.452925
  H      -0.923546      1.529912      0.935110
  H       1.162598     -1.681890      0.296677
  H       1.882588     -1.307775      1.899283
  H      -2.668199     -0.199001      1.206675
  H      -1.463571     -2.164141      0.160323
  H      -1.773497     -1.447542     -1.470954
  H      -3.144643     -1.937374     -0.420312
  H      -3.105863      1.853090     -0.165605
  H      -2.719233      0.913739     -1.662285
  H      -4.116397      0.440908     -0.630757
29
Coordinates from ORCA-job ./output/menthone/menthone E -83.920541233551
  C       3.375367     -0.425216     -0.404137
  C       2.239142      0.225955      0.374993
  C       1.456137      1.228386     -0.497084
  C       0.043857      0.760599     -0.832685
  C      -0.768163      0.531411      0.443441
  C       0.017647     -0.290224      1.435488
  O      -0.409880     -0.488273      2.552181
  C       1.336696     -0.849405      0.994518
  C      -2.156833     -0.083965      0.215703
  C      -2.102127     -1.481279     -0.392525
  C      -3.046289      0.833141     -0.615461
  H       4.076285      0.329481     -0.760750
  H       2.986249     -0.969894     -1.265994
  H       3.925398     -1.124566      0.226897
  H       2.688958      0.782198      1.200781
  H       1.994676      1.425796     -1.425062
  H       1.387497      2.185993      0.025576
  H       0.104357     -0.154115     -1.426477
  H      -0.441099      1.516528     -1.449766
  H      -0.917654      1.506004      0.918001
  H       1.136139     -1.632369      0.256050
  H       1.832801     -1.316626      1.841444
  H      -2.620565     -0.177375      1.200583
  H      -1.454316     -2.141212      0.185327
  H      -1.749055     -1.456190     -1.423549
  H      -3.099189     -1.920735     -0.396148
  H      -3.073598      1.837340     -0.190714
  H      -2.696807      0.900455     -1.646076
  H      -4.065631      0.448156     -0.633047
29
Coordinates from ORCA-job ./output/menthone/menthone E -83.921240631978
  C       3.375152     -0.414217     -0.404229
  C       2.241519      0.232195      0.375872
  C       1.453882      1.235789     -0.485944
  C       0.053387      0.753283     -0.833849
  C      -0.763061      0.527316      0.432768
  C       0.015534     -0.295849      1.434392
  O      -0.416780     -0.505090      2.543190
  C       1.333328     -0.844731      0.976113
  C      -2.155033     -0.079737      0.217919
  C      -2.111123     -1.483953     -0.367503
  C      -3.037573      0.830828     -0.622230
  H       4.082346      0.337010     -0.751334
  H       2.988487     -0.944642     -1.274713
  H       3.919014     -1.127730      0.213577
  H       2.684940      0.777455      1.210096
  H       2.001555      1.446753     -1.403969
  H       1.369773      2.186312      0.043439
  H       0.120499     -0.164002     -1.420448
  H      -0.435724      1.494175     -1.463318
  H      -0.908129      1.498946      0.912933
  H       1.123382     -1.603277      0.217209
  H       1.819137     -1.342902      1.810515
  H      -2.605179     -0.153738      1.208535
  H      -1.485654     -2.148448      0.226451
  H      -1.740582     -1.481808     -1.391489
  H      -3.112837     -1.909521     -0.385493
  H      -3.064027      1.839638     -0.212522
  H      -2.688506      0.888928     -1.652183
  H      -4.057724      0.451015     -0.642278
29
Coordinates from ORCA-job ./output/menthone/menthone E -83.921431137508
  C       3.375087     -0.408369     -0.405252
  C       2.245626      0.237242      0.377729
  C       1.452117      1.240935     -0.479681
  C       0.060199      0.746054     -0.836914
  C      -0.759202      0.522545      0.425370
  C       0.015533     -0.301973      1.436288
  O      -0.414181     -0.505747      2.545133
  C       1.336048     -0.841290      0.970719
  C      -2.156482     -0.078044      0.219198
  C      -2.119540     -1.485252     -0.356384
  C      -3.035707      0.829864     -0.624336
  H       4.088064      0.339798     -0.749621
  H       2.987157     -0.930352     -1.281456
  H       3.916036     -1.132802      0.203280
  H       2.688052      0.778969      1.215720
  H       2.008268      1.465953     -1.390269
  H       1.353138      2.186713      0.056488
  H       0.131965     -0.174530     -1.419337
  H      -0.433849      1.476118     -1.476631
  H      -0.901155      1.494266      0.909565
  H       1.118153     -1.586016      0.199606
  H       1.816434     -1.359055      1.798021
  H      -2.595858     -0.142058      1.215932
  H      -1.517502     -2.158216      0.253151
  H      -1.725339     -1.496375     -1.372608
  H      -3.126338     -1.899284     -0.397348
  H      -3.062593      1.842239     -0.221632
  H      -2.686376      0.885600     -1.655258
  H      -4.057756      0.453066     -0.647965
29
Coordinates from ORCA-job ./output/menthone/menthone E -83.921445566654
  C       3.365586     -0.416927     -0.413994
  C       2.247150      0.236038      0.378244
  C       1.454288      1.247084     -0.472637
  C       0.062842      0.754355     -0.834757
  C      -0.759218      0.529017      0.425927
  C       0.017549     -0.288464      1.443094
  O      -0.420035     -0.502259      2.546864
  C       1.333325     -0.837167      0.974294
  C      -2.154677     -0.078248      0.219041
  C      -2.109074     -1.486803     -0.352652
  C      -3.036463      0.822685     -0.628657
  H       4.084258      0.325263     -0.760845
  H       2.967761     -0.931929     -1.290476
  H       3.903680     -1.149937      0.187439
  H       2.698917      0.773568      1.214455
  H       2.013806      1.481089     -1.379355
  H       1.353007      2.188342      0.071831
  H       0.133946     -0.165167     -1.419678
  H      -0.430702      1.484953     -1.475058
  H      -0.907641      1.500921      0.908820
  H       1.104688     -1.577705      0.201420
  H       1.811983     -1.361503      1.798941
  H      -2.593313     -0.141147      1.216665
  H      -1.514489     -2.158307      0.266621
  H      -1.700486     -1.500689     -1.363589
  H      -3.114678     -1.903398     -0.406746
  H      -3.070037      1.836707     -0.229396
  H      -2.684789      0.878267     -1.659278
  H      -4.057182      0.441363     -0.655028
29
Coordinates from ORCA-job ./output/menthone/menthone E -83.921471644119
  C       3.361338     -0.419089     -0.419210
  C       2.247585      0.235613      0.378551
  C       1.453953      1.248936     -0.468899
  C       0.063240      0.756228     -0.833736
  C      -0.759545      0.528603      0.426611
  C       0.016822     -0.289639      1.443679
  O      -0.417192     -0.494144      2.550858
  C       1.334665     -0.836720      0.978292
  C      -2.154965     -0.079137      0.218027
  C      -2.108108     -1.488194     -0.352698
  C      -3.035187      0.821284     -0.631724
  H       4.080813      0.321486     -0.768063
  H       2.958804     -0.931908     -1.294910
  H       3.899882     -1.154480      0.179049
  H       2.704106      0.772768      1.212451
  H       2.014569      1.488887     -1.373371
  H       1.350361      2.187232      0.080507
  H       0.134924     -0.161862     -1.420890
  H      -0.430346      1.488143     -1.472610
  H      -0.908780      1.500203      0.909955
  H       1.105809     -1.579542      0.207570
  H       1.814071     -1.358468      1.804037
  H      -2.594946     -0.141187      1.215167
  H      -1.518252     -2.159805      0.271125
  H      -1.692963     -1.503535     -1.360912
  H      -3.113750     -1.904053     -0.412553
  H      -3.068898      1.835846     -0.233614
  H      -2.681802      0.875763     -1.661907
  H      -4.056205      0.440772     -0.659274
29
Coordinates from ORCA-job ./output/menthone/menthone E -83.921492088672
  C       3.347800     -0.427468     -0.433532
  C       2.247881      0.233382      0.378637
  C       1.454381      1.255685     -0.457308
  C       0.064860      0.765132     -0.828934
  C      -0.760544      0.532595      0.429295
  C       0.015777     -0.283466      1.447524
  O      -0.416723     -0.480113      2.556985
  C       1.332961     -0.834041      0.984598
  C      -2.153118     -0.080466      0.216045
  C      -2.098894     -1.491501     -0.349120
  C      -3.031237      0.814590     -0.641336
  H       4.070806      0.307854     -0.786043
  H       2.932015     -0.932373     -1.307606
  H       3.885354     -1.170763      0.155799
  H       2.717593      0.765304      1.208444
  H       2.016732      1.508733     -1.356979
  H       1.347846      2.186345      0.104570
  H       0.137768     -0.149800     -1.420883
  H      -0.427340      1.500523     -1.464812
  H      -0.914956      1.503328      0.912430
  H       1.099726     -1.578841      0.217011
  H       1.812646     -1.353977      1.811055
  H      -2.597665     -0.140002      1.211272
  H      -1.515525     -2.159516      0.284585
  H      -1.671917     -1.510518     -1.352205
  H      -3.103066     -1.909309     -0.418309
  H      -3.068339      1.830895     -0.248010
  H      -2.673232      0.865111     -1.670109
  H      -4.051589      0.432676     -0.671557
29
Coordinates from ORCA-job ./output/menthone/menthone E -83.921529729330
  C       3.304889     -0.452991     -0.476188
  C       2.248668      0.226377      0.378231
  C       1.456721      1.276504     -0.421503
  C       0.070741      0.793018     -0.813750
  C      -0.763175      0.546747      0.437216
  C       0.013368     -0.260476      1.460921
  O      -0.416731     -0.439462      2.574745
  C       1.325654     -0.824820      1.001308
  C      -2.145968     -0.084160      0.210249
  C      -2.068623     -1.500937     -0.337255
  C      -3.018905      0.792945     -0.670373
  H       4.038947      0.265894     -0.839266
  H       2.849423     -0.932448     -1.344735
  H       3.837206     -1.220682      0.085986
  H       2.758017      0.739309      1.196291
  H       2.023755      1.567001     -1.306529
  H       1.342478      2.183642      0.176476
  H       0.147661     -0.113237     -1.418492
  H      -0.416666      1.537913     -1.442039
  H      -0.934739      1.514920      0.918820
  H       1.078293     -1.573589      0.241929
  H       1.804921     -1.342253      1.829110
  H      -2.604454     -0.136738      1.199468
  H      -1.501940     -2.157353      0.323028
  H      -1.610438     -1.529872     -1.326028
  H      -3.067655     -1.925865     -0.431065
  H      -3.067906      1.814281     -0.291754
  H      -2.647197      0.831948     -1.694700
  H      -4.036341      0.404384     -0.708595
29
Coordinates from ORCA-job ./output/menthone/menthone E -83.921553002453
  C       3.263148     -0.476017     -0.514440
  C       2.248931      0.219630      0.377142
  C       1.459787      1.294660     -0.388678
  C       0.076640      0.818676     -0.799330
  C      -0.765362      0.561095      0.444471
  C       0.011611     -0.236429      1.474659
  O      -0.416545     -0.401258      2.591518
  C       1.317588     -0.815549      1.015758
  C      -2.137906     -0.087556      0.204964
  C      -2.038856     -1.508660     -0.327360
  C      -3.007126      0.772459     -0.696043
  H       4.006636      0.227628     -0.887813
  H       2.772087     -0.931779     -1.376261
  H       3.789087     -1.265162      0.023430
  H       2.794213      0.712868      1.183932
  H       2.030529      1.616420     -1.260287
  H       1.340169      2.180127      0.240048
  H       0.157146     -0.080629     -1.413979
  H      -0.405770      1.571547     -1.421771
  H      -0.953868      1.526917      0.923723
  H       1.058210     -1.567938      0.264065
  H       1.795609     -1.331216      1.845221
  H      -2.609579     -0.135650      1.188203
  H      -1.484250     -2.154729      0.352896
  H      -1.557028     -1.544008     -1.304567
  H      -3.032660     -1.940933     -0.440299
  H      -3.068785      1.797511     -0.329710
  H      -2.622849      0.802763     -1.715945
  H      -4.020805      0.375213     -0.742038
29
Coordinates from ORCA-job ./output/menthone/menthone E -83.921566322430
  C       3.247006     -0.485194     -0.528200
  C       2.249224      0.217071      0.376474
  C       1.461800      1.301014     -0.376807
  C       0.078912      0.828816     -0.793250
  C      -0.766369      0.567828      0.447536
  C       0.010994     -0.225066      1.481128
  O      -0.416493     -0.386137      2.598545
  C       1.313509     -0.811225      1.020929
  C      -2.134032     -0.088887      0.203043
  C      -2.026460     -1.510957     -0.325101
  C      -3.003236      0.764342     -0.704779
  H       3.993801      0.212733     -0.905700
  H       2.742757     -0.932416     -1.386808
  H       3.770067     -1.281761      0.001390
  H       2.807981      0.701653      1.179312
  H       2.033101      1.631568     -1.244855
  H       1.342425      2.179541      0.261579
  H       0.160372     -0.068934     -1.410047
  H      -0.401121      1.584211     -1.414398
  H      -0.962506      1.532628      0.925571
  H       1.051427     -1.565743      0.272528
  H       1.790049     -1.325998      1.851995
  H      -2.611186     -0.137105      1.183690
  H      -1.472586     -2.153827      0.358612
  H      -1.540677     -1.546466     -1.300435
  H      -3.018525     -1.946242     -0.441764
  H      -3.071898      1.789913     -0.341325
  H      -2.613994      0.793623     -1.722798
  H      -4.014339      0.361017     -0.754556
29
Coordinates from ORCA-job ./output/menthone/menthone E -83.921570229711
  C       3.248391     -0.485297     -0.526726
  C       2.249845      0.217442      0.376520
  C       1.462502      1.300624     -0.377918
  C       0.079056      0.828705     -0.793090
  C      -0.766446      0.568717      0.447468
  C       0.011067     -0.223855      1.481891
  O      -0.416121     -0.386168      2.598946
  C       1.313020     -0.810733      1.020256
  C      -2.133722     -0.088746      0.203218
  C      -2.026809     -1.510382     -0.326425
  C      -3.004460      0.764386     -0.703514
  H       3.995127      0.212965     -0.903883
  H       2.745035     -0.933311     -1.385478
  H       3.771287     -1.281240      0.004017
  H       2.807785      0.701435      1.180347
  H       2.032933      1.628380     -1.247751
  H       1.344889      2.180880      0.258406
  H       0.160215     -0.070360     -1.408073
  H      -0.400721      1.583196     -1.415573
  H      -0.963385      1.533334      0.925751
  H       1.053136     -1.565704      0.271663
  H       1.788231     -1.325768      1.852203
  H      -2.610787     -0.138209      1.183942
  H      -1.468997     -2.154405      0.352966
  H      -1.546521     -1.544250     -1.304660
  H      -3.019555     -1.945349     -0.439134
  H      -3.075232      1.789159     -0.338184
  H      -2.615200      0.796053     -1.721500
  H      -4.014559      0.358501     -0.754176
29
Coordinates from ORCA-job ./output/menthone/menthone E -83.921570524343
  C       3.247100     -0.486032     -0.527792
  C       2.249943      0.217275      0.376559
  C       1.462636      1.301191     -0.376910
  C       0.079412      0.829332     -0.792710
  C      -0.766482      0.569292      0.447555
  C       0.011065     -0.223005      1.482351
  O      -0.415565     -0.384116      2.599778
  C       1.312844     -0.810470      1.020737
  C      -2.133443     -0.088807      0.203059
  C      -2.025978     -1.510516     -0.326293
  C      -3.004258      0.763706     -0.704172
  H       3.994294      0.211661     -0.905159
  H       2.742715     -0.933084     -1.386480
  H       3.769575     -1.282849      0.002100
  H       2.808961      0.700590      1.180041
  H       2.033179      1.630062     -1.246259
  H       1.344648      2.180744      0.260359
  H       0.160699     -0.069825     -1.407616
  H      -0.400188      1.583752     -1.415447
  H      -0.964106      1.533762      0.925898
  H       1.052822     -1.565570      0.272295
  H       1.787708     -1.325581      1.852864
  H      -2.610741     -0.138143      1.183697
  H      -1.467933     -2.154483      0.352979
  H      -1.545806     -1.544415     -1.304610
  H      -3.018652     -1.945712     -0.438992
  H      -3.076060      1.788425     -0.338840
  H      -2.614364      0.795767     -1.721929
  H      -4.014024      0.357050     -0.755554
