29
Coordinates from ORCA-job ./output/menthone/menthone E -83.921570524343
  C           3.24709996851425     -0.48603159158986     -0.52779200086402
  C           2.24994257682346      0.21727475765595      0.37655904982979
  C           1.46263555862550      1.30119079951060     -0.37690957564699
  C           0.07941222737875      0.82933157991599     -0.79271022049727
  C          -0.76648239185297      0.56929239024636      0.44755523507738
  C           0.01106513176258     -0.22300505786082      1.48235056615163
  O          -0.41556510551225     -0.38411596403863      2.59977795848029
  C           1.31284397276674     -0.81047003053143      1.02073690886605
  C          -2.13344269898807     -0.08880690832860      0.20305934306928
  C          -2.02597810836404     -1.51051638221247     -0.32629342218139
  C          -3.00425776749924      0.76370554673699     -0.70417237032987
  H           3.99429442466395      0.21166078866647     -0.90515945728314
  H           2.74271518290617     -0.93308417850558     -1.38647950153080
  H           3.76957453457577     -1.28284916846927      0.00209997109506
  H           2.80896143738190      0.70059044228956      1.18004075764962
  H           2.03317877381394      1.63006224153664     -1.24625891276316
  H           1.34464829391805      2.18074440385325      0.26035943555920
  H           0.16069927530883     -0.06982460706237     -1.40761561127398
  H          -0.40018790695259      1.58375214882388     -1.41544723263734
  H          -0.96410550225619      1.53376180776733      0.92589773349434
  H           1.05282203125154     -1.56557012253488      0.27229537977476
  H           1.78770829127919     -1.32558067425206      1.85286371966805
  H          -2.61074067061402     -0.13814298380745      1.18369668531754
  H          -1.46793296619914     -2.15448344588160      0.35297859876780
  H          -1.54580637274224     -1.54441539172798     -1.30461028274597
  H          -3.01865159838071     -1.94571217139260     -0.43899209965078
  H          -3.07605977375407      1.78842507122889     -0.33884047551292
  H          -2.61436444726761      0.79576702514586     -1.72192861199118
  H          -4.01402437058746      0.35704967481782     -0.75555356789197
