! wB97X-3c OPT FREQ TightSCF
%pal
  nprocs 40
end
* xyz 0 1
C      3.397875    -0.436031    -0.402603
C      2.253867     0.222013     0.379265
C      1.469607     1.231387    -0.513416
C      0.039908     0.772827    -0.839331
C     -0.770791     0.535335     0.458617
C      0.036284    -0.287246     1.441129
O     -0.383151    -0.479105     2.572796
C      1.360018    -0.863683     1.023382
C     -2.176974    -0.089444     0.213651
C     -2.127526    -1.490545    -0.420254
C     -3.078658     0.837434    -0.614516
H      4.103961     0.338235    -0.771749
H      2.999484    -1.002982    -1.271418
H      3.961957    -1.132271     0.254367
H      2.719456     0.801710     1.208150
H      2.006147     1.428207    -1.467664
H      1.408322     2.208145     0.015935
H      0.100671    -0.152015    -1.450063
H     -0.450692     1.558103    -1.452925
H     -0.923546     1.529912     0.935110
H      1.162598    -1.681890     0.296677
H      1.882588    -1.307775     1.899283
H     -2.668199    -0.199001     1.206675
H     -1.463571    -2.164141     0.160323
H     -1.773497    -1.447542    -1.470954
H     -3.144643    -1.937374    -0.420312
H     -3.105863     1.853090    -0.165605
H     -2.719233     0.913739    -1.662285
H     -4.116397     0.440908    -0.630757
*
