! wB97X-3c OPT FREQ TightSCF
%pal
  nprocs 40
end
* xyz 0 1
C      2.594715     2.337324    -0.524563
O      1.621967     1.299804    -0.510256
C      1.890924     0.019008    -0.016249
O      3.046776    -0.268666     0.401268
C      0.836201    -1.020195    -0.035609
C      1.212612    -2.345060    -0.325468
C      0.250473    -3.345802    -0.465437
C     -1.100859    -3.040620    -0.320462
C     -1.494866    -1.738204    -0.011710
C     -0.540551    -0.718526     0.156535
C     -1.018703     0.612386     0.594768
O     -0.323686     1.311028     1.382873
O     -2.273047     1.067058     0.174326
C     -2.804110     2.326225     0.568925
H      2.931794     2.556066     0.510796
H      3.463528     2.035591    -1.147075
H      2.143262     3.253760    -0.956729
H      2.254356    -2.601441    -0.476082
H      0.553376    -4.358156    -0.700046
H     -1.845365    -3.817932    -0.435132
H     -2.549639    -1.534214     0.127677
H     -2.135365     3.144542     0.227283
H     -3.803322     2.461442     0.106604
H     -2.910472     2.364581     1.673763
*
