24
Coordinates from ORCA-job ./output/_e_p_mentha_1_7_8_dien_2_ol/_e_p_mentha_1_7_8_dien_2_ol E -75.744406450334
  C          -2.91037473129042      0.52944505881659     -0.35231168628195
  C          -1.65656856754202     -0.28757882256422     -0.31166420605181
  C          -1.44654014291596     -1.29059264276320     -1.15306660400715
  C          -0.65222705974503      0.12392884198340      0.74321535796502
  C           0.17374537325025      1.33515873314049      0.29507791319420
  C           1.32913076121399      0.91873362428734     -0.59233755033383
  C           2.28569371877182      0.03171830083612      0.16933146830387
  C           1.54615977408692     -1.03886990170126      0.91649425086277
  C           0.24587036809427     -1.00053942642703      1.16159960939774
  O           3.19690397347012     -0.52304607458460     -0.76418469437125
  H          -3.47678198773469      0.40159999759440      0.57137815059860
  H          -3.54744992327258      0.24302004779925     -1.18585692770027
  H          -2.68943472932722      1.59318297375858     -0.44333357779899
  H          -0.54548584325697     -1.88729098150912     -1.11214615465632
  H          -2.17538878514999     -1.54193001864047     -1.91268051696296
  H          -1.23078999557820      0.42187060451035      1.62319861699994
  H          -0.45916295975683      2.05358425348699     -0.22481346178928
  H           0.55934847586364      1.84476071419362      1.18134282930288
  H           1.86398417087149      1.78704970011145     -0.97554510420818
  H           0.96027234367305      0.35985239942072     -1.45334336480853
  H           2.84266035284268      0.64330217703370      0.89097281936245
  H           2.13316316280866     -1.88222093080939      1.26556317533389
  H          -0.22282131358635     -1.82461409591247      1.68718980493335
  H           3.87609256420940     -1.01052553206123     -0.29812814728419
