! wB97X-3c OPT FREQ TightSCF
%pal
  nprocs 40
end
* xyz 0 1
C     -3.068098     0.373943    -0.178073
C     -1.683999    -0.217019    -0.249299
C     -1.422103    -1.124703    -1.206265
C     -0.612264     0.257368     0.725208
C      0.246762     1.385529     0.112718
C      1.410659     0.835291    -0.715494
C      2.309452    -0.058421     0.148389
C      1.509832    -1.079482     0.925577
C      0.217884    -0.898705     1.248225
O      3.236281    -0.710693    -0.678679
H     -3.806769    -0.425884     0.040780
H     -3.324143     0.851002    -1.147929
H     -3.140658     1.146810     0.615350
H     -0.441831    -1.577969    -1.305962
H     -2.196016    -1.436013    -1.901780
H     -1.122971     0.691883     1.612052
H     -0.379914     2.051741    -0.520085
H      0.661428     2.012120     0.933556
H      2.010106     1.683961    -1.110682
H      1.022820     0.266974    -1.587051
H      2.846748     0.590716     0.878695
H      2.028411    -1.944385     1.328919
H     -0.278217    -1.653717     1.851283
H      3.976599    -1.020348    -0.093501
*
