42
Coordinates from ORCA-job ./output/gamma_eudesmol/gamma_eudesmol E -117.226765292982
  C       1.511120      2.752270      0.597421
  C       1.863607      1.291687      0.423782
  C       0.900377      0.328358      0.262766
  C      -0.588411      0.660567      0.348804
  C      -1.381380     -0.019514     -0.793303
  C      -1.120540     -1.543211     -0.774132
  C       0.377989     -1.852713     -0.901320
  C       1.257850     -1.165359      0.180473
  C       2.742854     -1.382927     -0.221731
  C       3.682423     -0.481817      0.569233
  C       3.343170      0.978667      0.299315
  C       1.004987     -1.826922      1.559941
  C      -2.915880      0.338966     -0.801589
  C      -3.116449      1.836654     -1.110186
  C      -3.615643      0.028284      0.546825
  O      -3.552033     -0.364085     -1.847454
  H       0.902543      2.890183      1.515954
  H       0.954705      3.119556     -0.290514
  H       2.420814      3.380932      0.699221
  H      -0.960843      0.320182      1.336398
  H      -0.771880      1.746558      0.299306
  H      -0.959690      0.359695     -1.752696
  H      -1.527408     -2.006860      0.146534
  H      -1.624784     -2.026182     -1.637432
  H       0.700520     -1.521806     -1.914223
  H       0.521802     -2.955376     -0.862451
  H       3.037432     -2.444531     -0.068155
  H       2.889899     -1.161711     -1.302953
  H       3.620991     -0.695269      1.656504
  H       4.730216     -0.676210      0.252261
  H       3.669972      1.245434     -0.729348
  H       3.924950      1.603853      1.010994
  H       1.309340     -2.895494      1.546440
  H       1.570317     -1.310542      2.362464
  H      -0.063221     -1.787178      1.850553
  H      -4.192050      2.045188     -1.297256
  H      -2.551337      2.129482     -2.020847
  H      -2.797679      2.482344     -0.266090
  H      -3.472030     -1.030258      0.843675
  H      -3.237472      0.680658      1.361379
  H      -4.708590      0.205853      0.453916
  H      -3.780556     -1.277405     -1.532481
42
Coordinates from ORCA-job ./output/gamma_eudesmol/gamma_eudesmol E -117.241100185980
  C       1.470345      2.731170      0.550965
  C       1.832114      1.275225      0.400505
  C       0.897694      0.321161      0.267832
  C      -0.573976      0.642370      0.350515
  C      -1.366038     -0.024620     -0.776782
  C      -1.118838     -1.528045     -0.760995
  C       0.367964     -1.832474     -0.887651
  C       1.243021     -1.158711      0.179477
  C       2.707343     -1.370608     -0.213889
  C       3.643536     -0.474754      0.572839
  C       3.304516      0.977914      0.303099
  C       0.985884     -1.817445      1.540333
  C      -2.870027      0.341196     -0.779738
  C      -3.054460      1.824153     -1.076372
  C      -3.558290      0.008366      0.543439
  O      -3.512215     -0.338040     -1.841988
  H       0.869332      2.890802      1.446513
  H       0.917203      3.087682     -0.318818
  H       2.362887      3.349549      0.640269
  H      -0.948289      0.304873      1.322062
  H      -0.740231      1.715347      0.308447
  H      -0.960137      0.351661     -1.722812
  H      -1.519012     -1.979081      0.151058
  H      -1.627587     -1.998173     -1.604863
  H       0.693181     -1.501909     -1.878333
  H       0.518775     -2.915248     -0.852506
  H       2.981685     -2.418871     -0.068885
  H       2.839871     -1.153245     -1.277864
  H       3.571070     -0.684002      1.641722
  H       4.677853     -0.670193      0.279326
  H       3.640502      1.247423     -0.704286
  H       3.856560      1.609916      1.003537
  H       1.275336     -2.870007      1.518124
  H       1.549332     -1.320654      2.329482
  H      -0.064548     -1.769665      1.825631
  H      -4.109919      2.036107     -1.247851
  H      -2.505269      2.108289     -1.974727
  H      -2.718417      2.447111     -0.249707
  H      -3.426746     -1.041708      0.812677
  H      -3.176518      0.622312      1.356986
  H      -4.628271      0.200894      0.454363
  H      -3.727213     -1.226068     -1.561138
42
Coordinates from ORCA-job ./output/gamma_eudesmol/gamma_eudesmol E -117.242727944444
  C       1.472199      2.735044      0.475069
  C       1.827574      1.273605      0.365712
  C       0.900691      0.316836      0.289825
  C      -0.569421      0.630728      0.367206
  C      -1.364374     -0.026832     -0.758407
  C      -1.118153     -1.525661     -0.748818
  C       0.366009     -1.823769     -0.874392
  C       1.240810     -1.160541      0.194022
  C       2.700095     -1.365263     -0.201071
  C       3.636504     -0.470180      0.581831
  C       3.300897      0.980344      0.305831
  C       0.982385     -1.826257      1.548839
  C      -2.860456      0.350984     -0.766035
  C      -3.036141      1.837392     -1.024751
  C      -3.575800     -0.030816      0.521594
  O      -3.491735     -0.287607     -1.867452
  H       0.883931      2.935267      1.368519
  H       0.905504      3.074431     -0.390430
  H       2.369220      3.347415      0.531312
  H      -0.949521      0.288150      1.332818
  H      -0.727043      1.702781      0.337057
  H      -0.961291      0.353090     -1.702225
  H      -1.515032     -1.975544      0.162968
  H      -1.631577     -1.993464     -1.588035
  H       0.696074     -1.481799     -1.857523
  H       0.527907     -2.903341     -0.850368
  H       2.968551     -2.414301     -0.065967
  H       2.820039     -1.143836     -1.263730
  H       3.552523     -0.673726      1.649283
  H       4.671488     -0.672141      0.305185
  H       3.662197      1.255569     -0.689759
  H       3.829428      1.622077      1.012039
  H       1.248791     -2.882462      1.510698
  H       1.565356     -1.352976      2.335583
  H      -0.061624     -1.759761      1.844973
  H      -4.090079      2.057775     -1.179077
  H      -2.495653      2.135726     -1.921058
  H      -2.681585      2.435823     -0.190662
  H      -3.470064     -1.092197      0.743991
  H      -3.196087      0.532118      1.369373
  H      -4.637330      0.189929      0.422461
  H      -3.695208     -1.192609     -1.636430
42
Coordinates from ORCA-job ./output/gamma_eudesmol/gamma_eudesmol E -117.243362936457
  C       1.479637      2.738906      0.393747
  C       1.826635      1.272418      0.337920
  C       0.902423      0.313104      0.310996
  C      -0.568284      0.622850      0.386632
  C      -1.363946     -0.021736     -0.744733
  C      -1.115753     -1.520442     -0.743733
  C       0.367718     -1.813108     -0.867406
  C       1.239884     -1.164468      0.212173
  C       2.700357     -1.364438     -0.182444
  C       3.635894     -0.466012      0.594924
  C       3.301378      0.982436      0.310106
  C       0.973064     -1.842518      1.559756
  C      -2.856828      0.361800     -0.754000
  C      -3.033860      1.852227     -0.976237
  C      -3.593556     -0.065984      0.504111
  O      -3.475160     -0.242850     -1.888816
  H       0.911902      2.988709      1.289001
  H       0.890903      3.052097     -0.467925
  H       2.382904      3.345460      0.402946
  H      -0.954315      0.266870      1.345939
  H      -0.719632      1.696319      0.376920
  H      -0.963710      0.366149     -1.687445
  H      -1.511038     -1.972871      0.168034
  H      -1.631992     -1.987682     -1.582380
  H       0.704897     -1.454206     -1.842896
  H       0.539843     -2.891834     -0.859200
  H       2.967008     -2.415317     -0.053290
  H       2.811174     -1.141648     -1.246570
  H       3.543351     -0.661807      1.663970
  H       4.673412     -0.672881      0.331486
  H       3.688892      1.266096     -0.674432
  H       3.806810      1.634232      1.024828
  H       1.209493     -2.905661      1.502134
  H       1.577629     -1.400195      2.348810
  H      -0.066326     -1.752069      1.866221
  H      -4.089801      2.073665     -1.115886
  H      -2.501357      2.168101     -1.871790
  H      -2.669026      2.431361     -0.132551
  H      -3.513151     -1.138728      0.677121
  H      -3.209025      0.444515      1.384242
  H      -4.648664      0.184288      0.405377
  H      -3.649782     -1.165150     -1.705663
42
Coordinates from ORCA-job ./output/gamma_eudesmol/gamma_eudesmol E -117.243539157540
  C       1.482965      2.739937      0.349549
  C       1.826195      1.272271      0.324056
  C       0.901979      0.311653      0.318654
  C      -0.568938      0.621126      0.395807
  C      -1.363795     -0.016101     -0.740768
  C      -1.114124     -1.516020     -0.742026
  C       0.369475     -1.807326     -0.864625
  C       1.239591     -1.166717      0.223517
  C       2.701818     -1.366780     -0.169423
  C       3.635501     -0.463821      0.603660
  C       3.301324      0.982883      0.310610
  C       0.969285     -1.851450      1.566718
  C      -2.856792      0.367664     -0.750125
  C      -3.035371      1.861169     -0.948249
  C      -3.603134     -0.085108      0.493857
  O      -3.469148     -0.216191     -1.901418
  H       0.943024      3.019922      1.253995
  H       0.867028      3.032283     -0.500878
  H       2.387876      3.343855      0.313811
  H      -0.956439      0.254929      1.350913
  H      -0.718779      1.695448      0.400261
  H      -0.964668      0.375299     -1.682832
  H      -1.509375     -1.968740      0.170034
  H      -1.630177     -1.985238     -1.580380
  H       0.710364     -1.438956     -1.835719
  H       0.545095     -2.885972     -0.865112
  H       2.969098     -2.417682     -0.038489
  H       2.810382     -1.147134     -1.234932
  H       3.539415     -0.652711      1.674335
  H       4.674349     -0.672880      0.345983
  H       3.703083      1.270873     -0.667463
  H       3.794022      1.639370      1.031150
  H       1.183582     -2.919020      1.496968
  H       1.590442     -1.430256      2.355189
  H      -0.065761     -1.743299      1.882836
  H      -4.092005      2.082356     -1.085600
  H      -2.502174      2.190443     -1.838971
  H      -2.672991      2.427603     -0.094441
  H      -3.538133     -1.163763      0.635759
  H      -3.212592      0.392854      1.390299
  H      -4.654767      0.182196      0.400683
  H      -3.616732     -1.148967     -1.747199
42
Coordinates from ORCA-job ./output/gamma_eudesmol/gamma_eudesmol E -117.243664657552
  C       1.484307      2.739798      0.318032
  C       1.825704      1.272295      0.313257
  C       0.901068      0.310961      0.321340
  C      -0.569558      0.621422      0.401433
  C      -1.363657     -0.010050     -0.739535
  C      -1.112434     -1.510994     -0.741582
  C       0.371438     -1.801569     -0.864536
  C       1.239083     -1.167968      0.231758
  C       2.703347     -1.370554     -0.156947
  C       3.634448     -0.461868      0.612169
  C       3.300727      0.982704      0.309196
  C       0.963798     -1.857623      1.570401
  C      -2.857332      0.371594     -0.748298
  C      -3.037828      1.867584     -0.927624
  C      -3.608071     -0.098887      0.487209
  O      -3.466370     -0.197399     -1.909101
  H       0.991652      3.045768      1.241626
  H       0.825101      3.010943     -0.506578
  H       2.386637      3.341345      0.220406
  H      -0.956682      0.245939      1.353093
  H      -0.719234      1.695950      0.418289
  H      -0.965597      0.383718     -1.681033
  H      -1.507271     -1.963276      0.171039
  H      -1.627519     -1.983403     -1.579435
  H       0.714537     -1.424463     -1.831604
  H       0.548284     -2.880218     -0.872826
  H       2.971390     -2.420559     -0.019339
  H       2.813802     -1.157417     -1.223807
  H       3.535857     -0.642671      1.684298
  H       4.674230     -0.672459      0.358594
  H       3.712964      1.272277     -0.664060
  H       3.783839      1.642747      1.034072
  H       1.156211     -2.928837      1.490332
  H       1.599858     -1.456581      2.357858
  H      -0.066849     -1.732164      1.895209
  H      -4.094187      2.087406     -1.071043
  H      -2.497857      2.209233     -1.809831
  H      -2.686300      2.423598     -0.062276
  H      -3.556302     -1.181577      0.603399
  H      -3.209611      0.352526      1.394269
  H      -4.656957      0.181788      0.402170
  H      -3.578663     -1.139057     -1.779994
42
Coordinates from ORCA-job ./output/gamma_eudesmol/gamma_eudesmol E -117.243776789896
  C       1.484459      2.739685      0.295000
  C       1.824819      1.272717      0.303260
  C       0.899783      0.311045      0.319921
  C      -0.570442      0.622327      0.403218
  C      -1.364192     -0.006104     -0.740129
  C      -1.111194     -1.507657     -0.741926
  C       0.373196     -1.797797     -0.865073
  C       1.238112     -1.168152      0.237201
  C       2.704126     -1.374500     -0.145052
  C       3.631893     -0.459452      0.620979
  C       3.299373      0.982568      0.305694
  C       0.958080     -1.859483      1.572976
  C      -2.858461      0.373812     -0.747950
  C      -3.037871      1.872507     -0.907708
  C      -3.611702     -0.111594      0.481034
  O      -3.466402     -0.179104     -1.915880
  H       1.064155      3.069874      1.246171
  H       0.764977      2.990061     -0.483837
  H       2.377051      3.336979      0.114476
  H      -0.955810      0.240398      1.352787
  H      -0.721371      1.696539      0.428759
  H      -0.966757      0.389040     -1.681129
  H      -1.505865     -1.959164      0.171021
  H      -1.623925     -1.984027     -1.579427
  H       0.717554     -1.414396     -1.829096
  H       0.549669     -2.876474     -0.878416
  H       2.972610     -2.422912      0.003031
  H       2.819997     -1.170171     -1.213026
  H       3.530141     -0.631053      1.694309
  H       4.672448     -0.671702      0.371624
  H       3.718265      1.268943     -0.665359
  H       3.776658      1.646538      1.031581
  H       1.131912     -2.933356      1.486197
  H       1.606368     -1.474349      2.358535
  H      -0.068261     -1.719371      1.905340
  H      -4.092375      2.093086     -1.063900
  H      -2.484932      2.228017     -1.776363
  H      -2.702643      2.415632     -0.027760
  H      -3.572562     -1.197193      0.573457
  H      -3.205381      0.315825      1.396166
  H      -4.658003      0.180651      0.404450
  H      -3.537494     -1.128231     -1.815157
42
Coordinates from ORCA-job ./output/gamma_eudesmol/gamma_eudesmol E -117.243877688733
  C       1.488369      2.741142      0.282652
  C       1.824864      1.273875      0.295551
  C       0.898807      0.312908      0.315329
  C      -0.571195      0.623814      0.401851
  C      -1.365589     -0.003887     -0.741640
  C      -1.110572     -1.505237     -0.744660
  C       0.374461     -1.794885     -0.867299
  C       1.236252     -1.166519      0.238317
  C       2.703620     -1.377493     -0.135414
  C       3.628141     -0.457917      0.630067
  C       3.298628      0.981898      0.302383
  C       0.949946     -1.856496      1.573074
  C      -2.860365      0.373708     -0.747651
  C      -3.040107      1.874195     -0.892543
  C      -3.612665     -0.122827      0.477869
  O      -3.468303     -0.168358     -1.918714
  H       1.159588      3.092454      1.262260
  H       0.702915      2.977627     -0.432866
  H       2.363386      3.329378      0.009375
  H      -0.953696      0.238973      1.351130
  H      -0.724399      1.697164      0.431728
  H      -0.969088      0.393032     -1.682121
  H      -1.505560     -1.957384      0.167557
  H      -1.620249     -1.984259     -1.582824
  H       0.719765     -1.408168     -1.829448
  H       0.549602     -2.873569     -0.882677
  H       2.970900     -2.424451      0.023608
  H       2.827737     -1.181493     -1.203811
  H       3.521502     -0.621363      1.703933
  H       4.669358     -0.672650      0.385938
  H       3.719902      1.259807     -0.669714
  H       3.775335      1.650039      1.024973
  H       1.113629     -2.931703      1.484699
  H       1.603098     -1.479105      2.358198
  H      -0.074406     -1.708229      1.907558
  H      -4.092001      2.094201     -1.065936
  H      -2.471768      2.243003     -1.745474
  H      -2.724774      2.406400      0.001174
  H      -3.581063     -1.209888      0.553405
  H      -3.200753      0.288864      1.397405
  H      -4.657561      0.175592      0.408119
  H      -3.495689     -1.122193     -1.845364
42
Coordinates from ORCA-job ./output/gamma_eudesmol/gamma_eudesmol E -117.243971932916
  C       1.497841      2.745036      0.276950
  C       1.824866      1.276134      0.290212
  C       0.897293      0.316612      0.310095
  C      -0.573207      0.624435      0.398417
  C      -1.368081     -0.004876     -0.743644
  C      -1.110563     -1.505382     -0.749027
  C       0.375287     -1.793854     -0.868827
  C       1.233520     -1.163335      0.237345
  C       2.701679     -1.378403     -0.127897
  C       3.623495     -0.456505      0.638830
  C       3.297843      0.981329      0.299436
  C       0.941555     -1.849427      1.573317
  C      -2.863092      0.371482     -0.747502
  C      -3.042215      1.873346     -0.877749
  C      -3.614526     -0.135293      0.474517
  O      -3.471682     -0.159272     -1.921791
  H       1.274846      3.116327      1.278951
  H       0.649136      2.977302     -0.361766
  H       2.347907      3.317301     -0.092684
  H      -0.952462      0.239846      1.348797
  H      -0.730567      1.696640      0.428509
  H      -0.972226      0.394412     -1.683362
  H      -1.507024     -1.959883      0.161050
  H      -1.615970     -1.985519     -1.589192
  H       0.722027     -1.407697     -1.830519
  H       0.549400     -2.872492     -0.882471
  H       2.966597     -2.424444      0.039759
  H       2.834098     -1.188494     -1.196174
  H       3.510629     -0.613525      1.712726
  H       4.665353     -0.674295      0.400876
  H       3.717178      1.246198     -0.676905
  H       3.778806      1.654594      1.014061
  H       1.106903     -2.924537      1.488747
  H       1.591152     -1.469073      2.359709
  H      -0.083898     -1.702161      1.903979
  H      -4.091020      2.093758     -1.067728
  H      -2.459031      2.255465     -1.714500
  H      -2.744658      2.394040      0.028667
  H      -3.587106     -1.223015      0.537344
  H      -3.200431      0.265744      1.397490
  H      -4.658599      0.166474      0.408617
  H      -3.461050     -1.114991     -1.876664
42
Coordinates from ORCA-job ./output/gamma_eudesmol/gamma_eudesmol E -117.244045679628
  C       1.512149      2.750003      0.280641
  C       1.824836      1.278690      0.289572
  C       0.895485      0.321148      0.307508
  C      -0.576051      0.624159      0.395655
  C      -1.370717     -0.006798     -0.745345
  C      -1.111114     -1.506183     -0.754306
  C       0.375399     -1.792988     -0.869921
  C       1.230603     -1.159641      0.235517
  C       2.699106     -1.377182     -0.124263
  C       3.619837     -0.456215      0.645006
  C       3.297458      0.980551      0.298618
  C       0.934569     -1.842314      1.573218
  C      -2.865878      0.368331     -0.747599
  C      -3.047442      1.870282     -0.872132
  C      -3.616022     -0.143874      0.472839
  O      -3.474613     -0.159208     -1.922834
  H       1.394558      3.136677      1.294734
  H       0.611729      2.988981     -0.277944
  H       2.332803      3.302615     -0.176024
  H      -0.953000      0.240861      1.347352
  H      -0.738029      1.695280      0.424299
  H      -0.975233      0.395537     -1.684029
  H      -1.509881     -1.964509      0.152668
  H      -1.612688     -1.985273     -1.597412
  H       0.724095     -1.409499     -1.831970
  H       0.549507     -2.871543     -0.880467
  H       2.961162     -2.423508      0.045742
  H       2.836529     -1.188491     -1.192044
  H       3.501436     -0.610735      1.718550
  H       4.662202     -0.676668      0.412281
  H       3.711902      1.233194     -0.683103
  H       3.785028      1.658241      1.004008
  H       1.111638     -2.915958      1.494946
  H       1.573706     -1.451289      2.362767
  H      -0.094663     -1.704195      1.895393
  H      -4.094383      2.088245     -1.074119
  H      -2.455104      2.260710     -1.698499
  H      -2.762180      2.386131      0.040909
  H      -3.587944     -1.231542      0.531826
  H      -3.202971      0.255437      1.396945
  H      -4.660198      0.157465      0.407174
  H      -3.437623     -1.114924     -1.896160
42
Coordinates from ORCA-job ./output/gamma_eudesmol/gamma_eudesmol E -117.244089475913
  C       1.524367      2.753653      0.287563
  C       1.823985      1.280614      0.291215
  C       0.893464      0.324446      0.306960
  C      -0.579092      0.623023      0.393431
  C      -1.372552     -0.009317     -0.747428
  C      -1.111569     -1.508183     -0.758059
  C       0.375381     -1.793279     -0.869573
  C       1.228690     -1.157082      0.234945
  C       2.697450     -1.375172     -0.123187
  C       3.618082     -0.456126      0.648017
  C       3.296878      0.980237      0.299292
  C       0.931173     -1.837158      1.574245
  C      -2.867726      0.365764     -0.748692
  C      -3.050663      1.867466     -0.871316
  C      -3.618266     -0.148696      0.470549
  O      -3.476909     -0.159968     -1.925260
  H       1.493468      3.150843      1.304019
  H       0.587447      3.002624     -0.201423
  H       2.315659      3.289585     -0.236789
  H      -0.955325      0.240588      1.345778
  H      -0.744829      1.693688      0.420560
  H      -0.977117      0.394876     -1.685473
  H      -1.512556     -1.969205      0.146621
  H      -1.610398     -1.986255     -1.603363
  H       0.725839     -1.413033     -1.832389
  H       0.550850     -2.871728     -0.876973
  H       2.957631     -2.422429      0.044333
  H       2.835524     -1.184464     -1.190640
  H       3.496448     -0.610899      1.721280
  H       4.660908     -0.677753      0.418439
  H       3.707362      1.226395     -0.685960
  H       3.788518      1.660850      0.998762
  H       1.121807     -2.908939      1.502134
  H       1.559347     -1.434308      2.366710
  H      -0.102023     -1.709579      1.888010
  H      -4.097388      2.083870     -1.075992
  H      -2.456557      2.260857     -1.695096
  H      -2.767605      2.382103      0.043243
  H      -3.588799     -1.236204      0.529696
  H      -3.207260      0.251628      1.395306
  H      -4.662556      0.152132      0.403420
  H      -3.431086     -1.115464     -1.906918
42
Coordinates from ORCA-job ./output/gamma_eudesmol/gamma_eudesmol E -117.244116031157
  C       1.533384      2.755716      0.296747
  C       1.823253      1.281713      0.295668
  C       0.891906      0.326274      0.308203
  C      -0.581381      0.621797      0.393350
  C      -1.373232     -0.010261     -0.748826
  C      -1.111906     -1.509056     -0.760349
  C       0.375158     -1.793072     -0.869502
  C       1.227880     -1.155634      0.234737
  C       2.696662     -1.373179     -0.124584
  C       3.617861     -0.456922      0.648543
  C       3.296593      0.979812      0.301945
  C       0.930641     -1.835196      1.574519
  C      -2.868538      0.364177     -0.750443
  C      -3.054279      1.865073     -0.878164
  C      -3.619373     -0.148182      0.469428
  O      -3.477247     -0.165813     -1.926395
  H       1.566078      3.159593      1.310620
  H       0.572652      3.013491     -0.138119
  H       2.299295      3.280174     -0.275486
  H      -0.957914      0.238123      1.345155
  H      -0.749383      1.692081      0.420912
  H      -0.977487      0.394872     -1.686363
  H      -1.514434     -1.971563      0.143000
  H      -1.609810     -1.985817     -1.606986
  H       0.726617     -1.414779     -1.832833
  H       0.552251     -2.871420     -0.875409
  H       2.955771     -2.421614      0.037577
  H       2.832753     -1.178390     -1.191707
  H       3.495326     -0.614251      1.721500
  H       4.660929     -0.678401      0.419705
  H       3.704924      1.225711     -0.684412
  H       3.789694      1.660853      0.999970
  H       1.131727     -2.905351      1.506068
  H       1.550661     -1.423979      2.369214
  H      -0.105429     -1.715857      1.882315
  H      -4.102176      2.078572     -1.080012
  H      -2.463773      2.255859     -1.705858
  H      -2.768311      2.384181      0.033007
  H      -3.586362     -1.235313      0.533857
  H      -3.211095      0.257541      1.393222
  H      -4.664302      0.149957      0.399559
  H      -3.435581     -1.121518     -1.903379
42
Coordinates from ORCA-job ./output/gamma_eudesmol/gamma_eudesmol E -117.244136142907
  C       1.536433      2.756100      0.304675
  C       1.822313      1.282006      0.300843
  C       0.890884      0.326354      0.309701
  C      -0.582863      0.620078      0.394226
  C      -1.372886     -0.011049     -0.749784
  C      -1.111805     -1.510130     -0.761038
  C       0.375217     -1.793492     -0.869558
  C       1.228316     -1.155417      0.234519
  C       2.696952     -1.371364     -0.127555
  C       3.618606     -0.457618      0.647359
  C       3.296142      0.979924      0.305659
  C       0.932820     -1.835667      1.574177
  C      -2.868215      0.363382     -0.752654
  C      -3.054331      1.863577     -0.887615
  C      -3.619794     -0.143773      0.468870
  O      -3.476603     -0.171595     -1.927410
  H       1.598394      3.162872      1.316097
  H       0.565017      3.018031     -0.103216
  H       2.288771      3.276446     -0.289286
  H      -0.960138      0.233729      1.344704
  H      -0.752172      1.690192      0.423384
  H      -0.976348      0.393847     -1.687035
  H      -1.514951     -1.972683      0.142142
  H      -1.609944     -1.985803     -1.608060
  H       0.726605     -1.416017     -1.833303
  H       0.553906     -2.871710     -0.874978
  H       2.956110     -2.420722      0.028826
  H       2.830001     -1.172061     -1.194342
  H       3.497056     -0.618640      1.720000
  H       4.661785     -0.677651      0.417328
  H       3.704467      1.230356     -0.679595
  H       3.788159      1.659300      1.006227
  H       1.139801     -2.904825      1.507101
  H       1.548726     -1.420115      2.369921
  H      -0.104693     -1.721007      1.879266
  H      -4.103998      2.076510     -1.080980
  H      -2.471282      2.247652     -1.723738
  H      -2.759423      2.388741      0.017289
  H      -3.582935     -1.230390      0.541186
  H      -3.214242      0.269170      1.390806
  H      -4.665487      0.150999      0.395688
  H      -3.454370     -1.127535     -1.889848
42
Coordinates from ORCA-job ./output/gamma_eudesmol/gamma_eudesmol E -117.244150801705
  C       1.536661      2.755687      0.310321
  C       1.821796      1.281839      0.305008
  C       0.890540      0.325668      0.311041
  C      -0.583425      0.618423      0.396282
  C      -1.372092     -0.010569     -0.750039
  C      -1.111267     -1.509884     -0.761906
  C       0.375730     -1.792853     -0.871022
  C       1.229275     -1.155701      0.233848
  C       2.697805     -1.370007     -0.130210
  C       3.619256     -0.458323      0.647095
  C       3.295824      0.980119      0.310463
  C       0.935210     -1.838358      1.572333
  C      -2.867663      0.363044     -0.754721
  C      -3.054621      1.862383     -0.899280
  C      -3.618782     -0.137114      0.469787
  O      -3.475346     -0.179648     -1.926569
  H       1.617840      3.165136      1.319467
  H       0.557709      3.017762     -0.078768
  H       2.277886      3.274754     -0.298640
  H      -0.960954      0.227622      1.344787
  H      -0.753537      1.688221      0.429458
  H      -0.974730      0.394305     -1.686845
  H      -1.514392     -1.972438      0.141365
  H      -1.610106     -1.984064     -1.609254
  H       0.726578     -1.414089     -1.834448
  H       0.555398     -2.870929     -0.877739
  H       2.957405     -2.419877      0.021956
  H       2.829204     -1.166977     -1.196510
  H       3.498729     -0.622794      1.719314
  H       4.662536     -0.676628      0.415705
  H       3.706420      1.236658     -0.672169
  H       3.785072      1.656799      1.015819
  H       1.142775     -2.907297      1.503655
  H       1.551041     -1.423631      2.368580
  H      -0.102332     -1.724580      1.877719
  H      -4.106000      2.074699     -1.084049
  H      -2.479486      2.238247     -1.744538
  H      -2.751166      2.394978     -0.001637
  H      -3.577270     -1.223046      0.551430
  H      -3.215460      0.284503      1.388759
  H      -4.665588      0.152909      0.393681
  H      -3.476469     -1.134946     -1.869533
42
Coordinates from ORCA-job ./output/gamma_eudesmol/gamma_eudesmol E -117.244156590823
  C       1.535571      2.755547      0.310595
  C       1.821437      1.281855      0.306373
  C       0.890371      0.325266      0.311733
  C      -0.583804      0.617223      0.397622
  C      -1.371627     -0.010296     -0.750046
  C      -1.110531     -1.509518     -0.763235
  C       0.376619     -1.792035     -0.872370
  C       1.229704     -1.155832      0.233560
  C       2.698324     -1.369577     -0.130108
  C       3.619211     -0.457963      0.648087
  C       3.295339      0.980651      0.312650
  C       0.935562     -1.840357      1.570973
  C      -2.867354      0.362764     -0.755742
  C      -3.053543      1.861932     -0.903593
  C      -3.617756     -0.134147      0.470434
  O      -3.474693     -0.182763     -1.926100
  H       1.623406      3.166968      1.318374
  H       0.553930      3.015666     -0.072496
  H       2.272244      3.274173     -0.304227
  H      -0.960994      0.223206      1.344858
  H      -0.755016      1.686634      0.434070
  H      -0.973594      0.395243     -1.686233
  H      -1.513688     -1.972682      0.139710
  H      -1.609090     -1.982390     -1.611304
  H       0.727361     -1.411521     -1.835093
  H       0.556383     -2.870019     -0.880420
  H       2.958335     -2.419263      0.022369
  H       2.830528     -1.166367     -1.196204
  H       3.499214     -0.623106      1.720169
  H       4.662486     -0.675443      0.415983
  H       3.707363      1.239227     -0.668759
  H       3.783348      1.656214      1.019989
  H       1.140620     -2.909600      1.500044
  H       1.553293     -1.428750      2.367319
  H      -0.101326     -1.725133      1.877892
  H      -4.105485      2.075406     -1.083759
  H      -2.482069      2.234235     -1.752817
  H      -2.745304      2.396806     -0.008962
  H      -3.573919     -1.219731      0.556190
  H      -3.215243      0.291484      1.387805
  H      -4.665223      0.153205      0.393342
  H      -3.490386     -1.137213     -1.858677
42
Coordinates from ORCA-job ./output/gamma_eudesmol/gamma_eudesmol E -117.244158961080
  C       1.534771      2.755493      0.310220
  C       1.821341      1.281845      0.306772
  C       0.890457      0.325129      0.312643
  C      -0.583814      0.616583      0.398810
  C      -1.371326     -0.009660     -0.749716
  C      -1.109835     -1.508628     -0.764859
  C       0.377487     -1.790724     -0.873728
  C       1.229810     -1.155893      0.233466
  C       2.698605     -1.369643     -0.128981
  C       3.619039     -0.457483      0.649324
  C       3.295082      0.981016      0.313286
  C       0.934938     -1.842207      1.569834
  C      -2.867308      0.362679     -0.755965
  C      -3.053852      1.861596     -0.906173
  C      -3.616751     -0.132263      0.471540
  O      -3.474248     -0.185481     -1.924840
  H       1.626977      3.168096      1.317071
  H       0.551536      3.013937     -0.069622
  H       2.268629      3.273572     -0.308389
  H      -0.960571      0.220616      1.345356
  H      -0.755767      1.685721      0.437654
  H      -0.972896      0.397041     -1.685215
  H      -1.513071     -1.973029      0.137401
  H      -1.607882     -1.980109     -1.613910
  H       0.728482     -1.408314     -1.835561
  H       0.556987     -2.868671     -0.883331
  H       2.958830     -2.418997      0.025244
  H       2.832362     -1.167451     -1.195010
  H       3.499074     -0.622147      1.721421
  H       4.662270     -0.674882      0.417059
  H       3.707392      1.239137     -0.668089
  H       3.783231      1.656561      1.020511
  H       1.137054     -2.911829      1.496439
  H       1.554798     -1.434142      2.366323
  H      -0.101224     -1.725304      1.878380
  H      -4.105930      2.075131     -1.085393
  H      -2.483375      2.232584     -1.756594
  H      -2.744581      2.397821     -0.012784
  H      -3.571528     -1.217612      0.559704
  H      -3.214501      0.295948      1.387716
  H      -4.664663      0.153381      0.394142
  H      -3.496029     -1.139418     -1.852156
42
Coordinates from ORCA-job ./output/gamma_eudesmol/gamma_eudesmol E -117.244159589740
  C       1.534582      2.755664      0.308952
  C       1.821271      1.281959      0.306174
  C       0.890476      0.325227      0.312778
  C      -0.583853      0.616248      0.399016
  C      -1.371221     -0.009548     -0.749756
  C      -1.109413     -1.508383     -0.766017
  C       0.378058     -1.790145     -0.874290
  C       1.229684     -1.155854      0.233626
  C       2.698704     -1.369935     -0.127528
  C       3.618784     -0.456951      0.650336
  C       3.294954      0.981232      0.312683
  C       0.933860     -1.842467      1.569666
  C      -2.867279      0.362621     -0.755804
  C      -3.053691      1.861596     -0.905112
  C      -3.616337     -0.132826      0.471735
  O      -3.474245     -0.184994     -1.924754
  H       1.628041      3.168787      1.315426
  H       0.551088      3.013626     -0.070459
  H       2.267952      3.273108     -0.310782
  H      -0.960308      0.219716      1.345456
  H      -0.756312      1.685301      0.438667
  H      -0.972704      0.397965     -1.684896
  H      -1.512874     -1.973714      0.135691
  H      -1.606896     -1.979084     -1.615783
  H       0.729475     -1.406946     -1.835655
  H       0.557488     -2.868086     -0.884508
  H       2.958929     -2.419026      0.028441
  H       2.833648     -1.169057     -1.193644
  H       3.498370     -0.620532      1.722549
  H       4.662043     -0.674702      0.418580
  H       3.706955      1.237702     -0.669271
  H       3.783703      1.657548      1.018698
  H       1.134405     -2.912329      1.495452
  H       1.554642     -1.435951      2.366224
  H      -0.102025     -1.724491      1.878706
  H      -4.105726      2.075548     -1.084016
  H      -2.483262      2.233290     -1.755253
  H      -2.743975      2.397069     -0.011403
  H      -3.570648     -1.218169      0.559704
  H      -3.214212      0.295503      1.387890
  H      -4.664396      0.152333      0.394470
  H      -3.497735     -1.138853     -1.851989
