25
Coordinates from ORCA-job ./output/cinnamyl_acetate/cinnamyl_acetate E -101.994616875208
  C           4.87283686873309      0.01540419621221     -1.36287817582700
  C           4.05441019913566     -0.48086148487502     -0.21498747875275
  O           4.49266217646796     -0.95128604924674      0.79920942147178
  O           2.74608511788563     -0.34001670387178     -0.44849946811050
  C           1.86909692341303     -0.79279276938778      0.58856416950304
  C           0.47135401043031     -0.61159339163565      0.12369514448657
  C          -0.43869224601609      0.05752355465052      0.81720506262891
  C          -1.84901073409161      0.23623974059690      0.44964499393405
  C          -2.56374065638590      1.29088968268724      1.00563688878222
  C          -3.88690455110572      1.51041103016850      0.66873657761744
  C          -4.52197848173730      0.66888525991956     -0.22667491980105
  C          -3.82538840464317     -0.39557381335520     -0.77545138910355
  C          -2.50392765425505     -0.61238859431060     -0.43747830485399
  H           4.63819407091897     -0.56195553189365     -2.25413759052601
  H           5.92544845190256     -0.08142662694681     -1.12308049485528
  H           4.62637482336411      1.05403267040918     -1.56898133908228
  H           2.09006725975449     -1.84126363907358      0.78962194847331
  H           2.06753290031082     -0.23115007684563      1.49959795539519
  H           0.22002406452200     -1.07266636890291     -0.82430140076274
  H          -0.13159042960250      0.54198850524671      1.73848270626404
  H          -2.07131161114072      1.95289955146995      1.70593023208242
  H          -4.42333356126366      2.33979262759598      1.10848827241698
  H          -5.55748590153054      0.83450102780180     -0.48944558914685
  H          -4.31924953637721     -1.06724651014062     -1.46406911028035
  H          -1.98147209868917     -1.46234428627259     -0.85304011195361
