25
Coordinates from ORCA-job ./output/cinnamyl_acetate/cinnamyl_acetate E -101.971475112394
  C       4.680079      0.729094     -0.942972
  C       3.954277     -0.349284     -0.212977
  O       4.600299     -1.166487      0.497850
  O       2.560289     -0.413958     -0.287725
  C       1.799587     -1.401962      0.400177
  C       0.342981     -1.200964      0.121570
  C      -0.289150     -0.092902      0.528276
  C      -1.725573      0.181751      0.277777
  C      -2.184119      1.506785      0.380913
  C      -3.530726      1.812387      0.161698
  C      -4.436784      0.798038     -0.153435
  C      -3.998940     -0.524741     -0.244185
  C      -2.652962     -0.836732     -0.026721
  H       4.065064      1.091923     -1.793031
  H       5.643062      0.341240     -1.337104
  H       4.879998      1.573725     -0.251474
  H       2.102554     -2.412363      0.049881
  H       1.983742     -1.331935      1.494550
  H      -0.173534     -1.969556     -0.436253
  H       0.288517      0.670833      1.037849
  H      -1.496933      2.308267      0.623987
  H      -3.871778      2.836852      0.237315
  H      -5.479224      1.036078     -0.321217
  H      -4.705052     -1.311522     -0.476707
  H      -2.355673     -1.874565     -0.076254
25
Coordinates from ORCA-job ./output/cinnamyl_acetate/cinnamyl_acetate E -101.988539304891
  C       4.614298      0.697216     -0.926354
  C       3.893583     -0.371676     -0.190842
  O       4.467181     -1.194347      0.490933
  O       2.557733     -0.369862     -0.313827
  C       1.823992     -1.364711      0.382742
  C       0.363246     -1.173507      0.112884
  C      -0.284554     -0.084989      0.516547
  C      -1.712308      0.184064      0.279049
  C      -2.173710      1.494044      0.380545
  C      -3.508963      1.795851      0.161694
  C      -4.404608      0.787572     -0.152292
  C      -3.959784     -0.523125     -0.241012
  C      -2.625596     -0.824838     -0.023410
  H       4.017055      1.075369     -1.755074
  H       5.549115      0.297082     -1.303816
  H       4.827872      1.515256     -0.241227
  H       2.147148     -2.349990      0.045681
  H       2.030676     -1.285944      1.451206
  H      -0.144417     -1.947134     -0.445964
  H       0.279181      0.686023      1.028750
  H      -1.485378      2.292086      0.623819
  H      -3.850924      2.818563      0.238009
  H      -5.447036      1.020012     -0.320175
  H      -4.658403     -1.314732     -0.473091
  H      -2.315399     -1.858280     -0.072986
25
Coordinates from ORCA-job ./output/cinnamyl_acetate/cinnamyl_acetate E -101.990075819930
  C       4.580576      0.695333     -0.926879
  C       3.886744     -0.404957     -0.199046
  O       4.446967     -1.213933      0.487474
  O       2.567167     -0.368911     -0.338387
  C       1.835580     -1.359361      0.379683
  C       0.372663     -1.171312      0.116278
  C      -0.286480     -0.093844      0.519245
  C      -1.710635      0.180000      0.288219
  C      -2.168304      1.487936      0.383350
  C      -3.497221      1.795808      0.156461
  C      -4.394306      0.793443     -0.160668
  C      -3.952641     -0.516501     -0.243305
  C      -2.624929     -0.821001     -0.017691
  H       3.982059      1.073123     -1.748973
  H       5.530247      0.322787     -1.292945
  H       4.770158      1.507665     -0.230009
  H       2.168564     -2.343358      0.060491
  H       2.060793     -1.263406      1.439872
  H      -0.130274     -1.947942     -0.444486
  H       0.268012      0.680372      1.038715
  H      -1.473715      2.280106      0.629586
  H      -3.833469      2.820759      0.229764
  H      -5.435106      1.028905     -0.334301
  H      -4.651509     -1.307847     -0.476695
  H      -2.310941     -1.853863     -0.063966
25
Coordinates from ORCA-job ./output/cinnamyl_acetate/cinnamyl_acetate E -101.990061885051
  C       4.580918      0.678986     -0.958464
  C       3.898096     -0.391077     -0.167442
  O       4.465692     -1.227411      0.479008
  O       2.576099     -0.351687     -0.317780
  C       1.838362     -1.342393      0.405925
  C       0.378541     -1.158841      0.130674
  C      -0.297002     -0.096571      0.543873
  C      -1.718110      0.178066      0.301275
  C      -2.181528      1.482629      0.411812
  C      -3.507056      1.791646      0.169588
  C      -4.397021      0.793188     -0.179157
  C      -3.950312     -0.514175     -0.277071
  C      -2.625919     -0.818875     -0.036500
  H       3.953618      1.052398     -1.760186
  H       5.510397      0.280923     -1.352123
  H       4.819004      1.501488     -0.287789
  H       2.181399     -2.326646      0.098491
  H       2.062918     -1.235725      1.465537
  H      -0.110697     -1.928825     -0.452020
  H       0.241318      0.671906      1.089567
  H      -1.490473      2.269863      0.683550
  H      -3.845972      2.814766      0.255802
  H      -5.435628      1.028981     -0.364932
  H      -4.642908     -1.303769     -0.534393
  H      -2.303734     -1.848843     -0.095455
25
Coordinates from ORCA-job ./output/cinnamyl_acetate/cinnamyl_acetate E -101.990484016877
  C       4.582520      0.676497     -0.970750
  C       3.906931     -0.410160     -0.192155
  O       4.476071     -1.212422      0.498594
  O       2.578612     -0.370129     -0.336113
  C       1.836566     -1.344378      0.411414
  C       0.378938     -1.160284      0.134042
  C      -0.299694     -0.101146      0.550884
  C      -1.719638      0.176724      0.304880
  C      -2.182730      1.481591      0.422162
  C      -3.507592      1.793193      0.176957
  C      -4.397655      0.797282     -0.181485
  C      -3.951894     -0.510536     -0.285821
  C      -2.628083     -0.817940     -0.042637
  H       3.966419      1.025392     -1.792321
  H       5.537284      0.307453     -1.332264
  H       4.773938      1.510984     -0.298576
  H       2.177275     -2.336000      0.123506
  H       2.066032     -1.215218      1.468206
  H      -0.107566     -1.926871     -0.455715
  H       0.234602      0.664261      1.105244
  H      -1.491073      2.265517      0.702010
  H      -3.845540      2.816159      0.268341
  H      -5.435266      1.035190     -0.369861
  H      -4.644192     -1.297953     -0.550433
  H      -2.304264     -1.847203     -0.106321
25
Coordinates from ORCA-job ./output/cinnamyl_acetate/cinnamyl_acetate E -101.990656051094
  C       4.594862      0.649669     -1.000577
  C       3.912320     -0.414436     -0.198505
  O       4.473028     -1.196433      0.520399
  O       2.583945     -0.372200     -0.344372
  C       1.837524     -1.323176      0.430158
  C       0.383212     -1.143814      0.140924
  C      -0.306876     -0.096995      0.570681
  C      -1.725280      0.178420      0.313006
  C      -2.197739      1.477898      0.454761
  C      -3.522121      1.786656      0.202046
  C      -4.402022      0.793387     -0.188392
  C      -3.947229     -0.509396     -0.317489
  C      -2.623929     -0.814199     -0.066933
  H       3.986174      0.969376     -1.839756
  H       5.557111      0.276407     -1.337343
  H       4.772421      1.505414     -0.351095
  H       2.178552     -2.322951      0.170760
  H       2.065189     -1.162216      1.483273
  H      -0.091497     -1.900682     -0.470689
  H       0.215095      0.659839      1.148168
  H      -1.513540      2.258845      0.760058
  H      -3.867364      2.805279      0.312643
  H      -5.438957      1.029249     -0.382965
  H      -4.631691     -1.294709     -0.607431
  H      -2.291187     -1.839230     -0.149544
25
Coordinates from ORCA-job ./output/cinnamyl_acetate/cinnamyl_acetate E -101.990895516900
  C       4.608268      0.616206     -1.037650
  C       3.920758     -0.418807     -0.202278
  O       4.476006     -1.179079      0.543983
  O       2.592177     -0.374246     -0.351851
  C       1.839323     -1.295591      0.453876
  C       0.388264     -1.122115      0.150019
  C      -0.316645     -0.092109      0.596062
  C      -1.733176      0.179982      0.325216
  C      -2.217769      1.471518      0.496108
  C      -3.540646      1.777294      0.232164
  C      -4.406791      0.788802     -0.198986
  C      -3.940094     -0.506531     -0.357702
  C      -2.618354     -0.808353     -0.095937
  H       4.004937      0.902451     -1.892551
  H       5.575145      0.235097     -1.351303
  H       4.776912      1.496030     -0.418553
  H       2.180151     -2.304065      0.230567
  H       2.063581     -1.097018      1.501123
  H      -0.071340     -1.866437     -0.488100
  H       0.189757      0.652790      1.202369
  H      -1.543732      2.248128      0.833397
  H      -3.895349      2.789849      0.366010
  H      -5.442550      1.022292     -0.402439
  H      -4.613987     -1.288429     -0.679807
  H      -2.274842     -1.827658     -0.201949
25
Coordinates from ORCA-job ./output/cinnamyl_acetate/cinnamyl_acetate E -101.991236688715
  C       4.625754      0.574214     -1.079699
  C       3.930898     -0.423831     -0.206146
  O       4.479154     -1.156441      0.572332
  O       2.602570     -0.376543     -0.360811
  C       1.841613     -1.260674      0.479959
  C       0.394470     -1.094185      0.158904
  C      -0.328296     -0.085301      0.624322
  C      -1.742832      0.182153      0.338841
  C      -2.243137      1.462656      0.544360
  C      -3.564491      1.764375      0.268313
  C      -4.413286      0.782537     -0.209987
  C      -3.931098     -0.502363     -0.403768
  C      -2.610927     -0.800098     -0.129897
  H       4.029667      0.820994     -1.951835
  H       5.596902      0.182692     -1.366159
  H       4.785797      1.481107     -0.498322
  H       2.181005     -2.278372      0.299995
  H       2.060910     -1.018261      1.518921
  H      -0.046694     -1.822725     -0.509859
  H       0.159633      0.644261      1.263647
  H      -1.582278      2.233591      0.918726
  H      -3.931512      2.768480      0.429742
  H      -5.447828      1.012780     -0.423091
  H      -4.591631     -1.279413     -0.763098
  H      -2.254362     -1.811631     -0.263600
25
Coordinates from ORCA-job ./output/cinnamyl_acetate/cinnamyl_acetate E -101.991681271926
  C       4.647601      0.523241     -1.125095
  C       3.943095     -0.429823     -0.209828
  O       4.482805     -1.129851      0.603900
  O       2.615310     -0.378655     -0.370975
  C       1.844264     -1.217934      0.507126
  C       0.401907     -1.058984      0.166720
  C      -0.341713     -0.075925      0.654129
  C      -1.754278      0.185225      0.353506
  C      -2.274187      1.450966      0.598279
  C      -3.594171      1.747155      0.309882
  C      -4.421891      0.774109     -0.220539
  C      -3.920253     -0.496699     -0.454132
  C      -2.601496     -0.788835     -0.167857
  H       4.059998      0.725508     -2.014295
  H       5.622169      0.119295     -1.381031
  H       4.800485      1.458522     -0.588311
  H       2.180559     -2.244363      0.376957
  H       2.057596     -0.926684      1.534627
  H      -0.017695     -1.768365     -0.535830
  H       0.124884      0.634814      1.329615
  H      -1.629538      2.214618      1.013618
  H      -3.976588      2.739938      0.502591
  H      -5.455331      0.999919     -0.443530
  H      -4.564476     -1.267265     -0.854665
  H      -2.229057     -1.789926     -0.333073
25
Coordinates from ORCA-job ./output/cinnamyl_acetate/cinnamyl_acetate E -101.992179449064
  C       4.672270      0.466835     -1.169074
  C       3.956127     -0.436023     -0.212890
  O       4.486137     -1.101568      0.635437
  O       2.629309     -0.380004     -0.381374
  C       1.847092     -1.170359      0.532241
  C       0.410055     -1.018457      0.172221
  C      -0.355482     -0.064026      0.682245
  C      -1.766485      0.189239      0.367683
  C      -2.308556      1.437085      0.652992
  C      -3.627628      1.726284      0.353502
  C      -4.432120      0.763695     -0.229164
  C      -3.908407     -0.489874     -0.503929
  C      -2.590626     -0.775002     -0.206388
  H       4.093664      0.623359     -2.073308
  H       5.648781      0.049201     -1.393519
  H       4.820643      1.428818     -0.680278
  H       2.178378     -2.203830      0.453581
  H       2.054167     -0.830104      1.545755
  H       0.013080     -1.706798     -0.563785
  H       0.089060      0.626006      1.393122
  H      -1.681947      2.192312      1.109326
  H      -4.027508      2.705291      0.578520
  H      -5.464791      0.983947     -0.461088
  H      -4.534621     -1.252641     -0.945804
  H      -2.200591     -1.763382     -0.404238
25
Coordinates from ORCA-job ./output/cinnamyl_acetate/cinnamyl_acetate E -101.992537338054
  C       4.691035      0.425934     -1.195896
  C       3.964002     -0.438728     -0.214094
  O       4.486290     -1.083054      0.655018
  O       2.638818     -0.378966     -0.387681
  C       1.848969     -1.135389      0.546663
  C       0.415913     -0.987096      0.173223
  C      -0.364131     -0.052999      0.698974
  C      -1.774737      0.193062      0.376342
  C      -2.333279      1.426926      0.689072
  C      -3.652362      1.709748      0.383643
  C      -4.440050      0.754465     -0.232800
  C      -3.899771     -0.485481     -0.535482
  C      -2.582049     -0.764320     -0.231767
  H       4.119027      0.553515     -2.108907
  H       5.666069     -0.005018     -1.399746
  H       4.841049      1.403829     -0.740647
  H       2.175116     -2.172659      0.501436
  H       2.050376     -0.764373      1.550268
  H       0.034237     -1.660542     -0.584401
  H       0.066374      0.622455      1.431940
  H      -1.720054      2.176669      1.171816
  H      -4.065472      2.677948      0.630462
  H      -5.472699      0.969697     -0.469517
  H      -4.513059     -1.242702     -1.004198
  H      -2.179611     -1.742918     -0.451934
25
Coordinates from ORCA-job ./output/cinnamyl_acetate/cinnamyl_acetate E -101.992805685617
  C       4.706509      0.393124     -1.214087
  C       3.968930     -0.439651     -0.214614
  O       4.484909     -1.070766      0.667690
  O       2.646082     -0.376275     -0.391618
  C       1.850519     -1.106836      0.555609
  C       0.420593     -0.959664      0.172149
  C      -0.370113     -0.041798      0.710699
  C      -1.780928      0.197005      0.382657
  C      -2.353112      1.419012      0.715867
  C      -3.672584      1.695529      0.406708
  C      -4.446585      0.745545     -0.234306
  C      -3.892454     -0.482748     -0.557821
  C      -2.574382     -0.755417     -0.250087
  H       4.140184      0.501271     -2.133197
  H       5.677736     -0.052190     -1.403043
  H       4.861909      1.381441     -0.784654
  H       2.170956     -2.146752      0.533830
  H       2.045966     -0.715417      1.552310
  H       0.050714     -1.621299     -0.601609
  H       0.050753      0.622198      1.459234
  H      -1.751238      2.165294      1.217777
  H      -4.096881      2.654557      0.669756
  H      -5.479562      0.955828     -0.474052
  H      -4.495349     -1.235937     -1.046093
  H      -2.162572     -1.726051     -0.487317
25
Coordinates from ORCA-job ./output/cinnamyl_acetate/cinnamyl_acetate E -101.993046937941
  C       4.721248      0.361033     -1.232544
  C       3.975756     -0.442353     -0.215435
  O       4.486329     -1.058133      0.680797
  O       2.654055     -0.374706     -0.396017
  C       1.852119     -1.079082      0.564687
  C       0.425048     -0.933454      0.172028
  C      -0.376723     -0.032324      0.722362
  C      -1.787373      0.200348      0.388947
  C      -2.372660      1.410468      0.742000
  C      -3.692318      1.681523      0.428895
  C      -4.453269      0.737677     -0.236305
  C      -3.885930     -0.478992     -0.579965
  C      -2.567708     -0.746222     -0.268057
  H       4.159401      0.448489     -2.156625
  H       5.690482     -0.094424     -1.406462
  H       4.879461      1.359491     -0.828523
  H       2.167236     -2.120953      0.567109
  H       2.043924     -0.666562      1.553456
  H       0.066919     -1.583028     -0.617400
  H       0.033816      0.620105      1.486534
  H      -1.781339      2.152232      1.262796
  H      -4.127071      2.631375      0.707725
  H      -5.486380      0.943618     -0.479267
  H      -4.478698     -1.227558     -1.087382
  H      -2.146325     -1.708566     -0.521568
25
Coordinates from ORCA-job ./output/cinnamyl_acetate/cinnamyl_acetate E -101.993382692702
  C       4.743698      0.312719     -1.258317
  C       3.987051     -0.448556     -0.217254
  O       4.488687     -1.039963      0.700112
  O       2.666602     -0.372878     -0.403842
  C       1.854552     -1.037326      0.576302
  C       0.431748     -0.893333      0.170799
  C      -0.386669     -0.018104      0.738168
  C      -1.797161      0.205432      0.397813
  C      -2.401935      1.397118      0.779632
  C      -3.722046      1.659835      0.461381
  C      -4.463950      0.725732     -0.238295
  C      -3.877096     -0.472932     -0.611162
  C      -2.558462     -0.731865     -0.293835
  H       4.188399      0.368852     -2.188831
  H       5.711333     -0.154277     -1.408855
  H       4.904180      1.324976     -0.891185
  H       2.160989     -2.081306      0.615098
  H       2.043579     -0.593559      1.551974
  H       0.090593     -1.524370     -0.641000
  H       0.008198      0.617163      1.524660
  H      -1.825718      2.131351      1.327334
  H      -4.172117      2.595447      0.763091
  H      -5.497352      0.925083     -0.485464
  H      -4.454921     -1.214191     -1.145812
  H      -2.122180     -1.681047     -0.570722
25
Coordinates from ORCA-job ./output/cinnamyl_acetate/cinnamyl_acetate E -101.993819017153
  C       4.779048      0.237778     -1.292113
  C       4.004186     -0.458983     -0.219933
  O       4.490991     -1.016079      0.726345
  O       2.686182     -0.368237     -0.416065
  C       1.858354     -0.971920      0.588704
  C       0.442011     -0.827243      0.165331
  C      -0.400921      0.006500      0.758630
  C      -1.811836      0.214323      0.409950
  C      -2.446653      1.375929      0.833493
  C      -3.768149      1.624163      0.509482
  C      -4.481337      0.705184     -0.238502
  C      -3.864363     -0.464025     -0.653692
  C      -2.544430     -0.708594     -0.330155
  H       4.233874      0.248781     -2.230284
  H       5.743009     -0.246399     -1.407144
  H       4.945234      1.267187     -0.979408
  H       2.148335     -2.017692      0.679801
  H       2.045376     -0.485421      1.544127
  H       0.125434     -1.428750     -0.678363
  H      -0.028722      0.615405      1.576269
  H      -1.893197      2.098573      1.418810
  H      -4.241855      2.536563      0.844321
  H      -5.515732      0.893149     -0.490447
  H      -4.419625     -1.193989     -1.226452
  H      -2.085213     -1.636202     -0.640917
25
Coordinates from ORCA-job ./output/cinnamyl_acetate/cinnamyl_acetate E -101.994275967355
  C       4.827645      0.124028     -1.336234
  C       4.028633     -0.475591     -0.223789
  O       4.494143     -0.979197      0.762252
  O       2.714392     -0.361035     -0.434683
  C       1.864759     -0.871965      0.601736
  C       0.457321     -0.724505      0.155453
  C      -0.420799      0.042975      0.785737
  C      -1.832353      0.227274      0.426479
  C      -2.511037      1.339974      0.909392
  C      -3.834719      1.566147      0.578403
  C      -4.506191      0.673518     -0.237178
  C      -3.845335     -0.447746     -0.712607
  C      -2.523384     -0.670614     -0.381331
  H       4.296272      0.064315     -2.280545
  H       5.787601     -0.377582     -1.396586
  H       4.999853      1.174065     -1.106187
  H       2.127423     -1.916077      0.768918
  H       2.054947     -0.325509      1.523572
  H       0.175004     -1.278721     -0.731926
  H      -0.081476      0.609929      1.646624
  H      -1.990263      2.042027      1.547378
  H      -4.342801      2.440702      0.960484
  H      -5.542125      0.844220     -0.494984
  H      -4.367713     -1.157967     -1.338660
  H      -2.029796     -1.562662     -0.739929
25
Coordinates from ORCA-job ./output/cinnamyl_acetate/cinnamyl_acetate E -101.994453667915
  C       4.874763     -0.000810     -1.373624
  C       4.051546     -0.492494     -0.226943
  O       4.495119     -0.940976      0.795024
  O       2.742807     -0.350588     -0.453980
  C       1.872728     -0.761266      0.607142
  C       0.473572     -0.605088      0.140556
  C      -0.439190      0.084806      0.809812
  C      -1.852001      0.241763      0.442147
  C      -2.576711      1.296257      0.985179
  C      -3.903225      1.496750      0.649251
  C      -4.531378      0.636219     -0.232685
  C      -3.824399     -0.427818     -0.769047
  C      -2.499832     -0.625639     -0.431901
  H       4.358487     -0.140688     -2.317968
  H       5.830318     -0.514001     -1.372606
  H       5.051939      1.064461     -1.236355
  H       2.100679     -1.799103      0.850466
  H       2.071782     -0.159163      1.491730
  H       0.224384     -1.104095     -0.788657
  H      -0.131512      0.603900      1.711742
  H      -2.090095      1.973487      1.674874
  H      -4.447493      2.326183      1.079150
  H      -5.569325      0.786923     -0.494846
  H      -4.312578     -1.113802     -1.447535
  H      -1.970383     -1.475218     -0.839137
25
Coordinates from ORCA-job ./output/cinnamyl_acetate/cinnamyl_acetate E -101.994461762770
  C       4.875161      0.000981     -1.372808
  C       4.052437     -0.492982     -0.226541
  O       4.495684     -0.939955      0.796238
  O       2.743436     -0.352824     -0.455226
  C       1.872658     -0.763258      0.605619
  C       0.472755     -0.607120      0.139142
  C      -0.439631      0.081860      0.809740
  C      -1.852184      0.240768      0.442231
  C      -2.575547      1.296569      0.984639
  C      -3.901848      1.498490      0.648722
  C      -4.531253      0.638076     -0.232481
  C      -3.825727     -0.427343     -0.768094
  C      -2.501363     -0.626551     -0.431037
  H       4.363270     -0.148788     -2.318009
  H       5.836022     -0.502230     -1.365845
  H       5.041114      1.068715     -1.240197
  H       2.100163     -1.800842      0.849991
  H       2.073074     -0.160973      1.489910
  H       0.222764     -1.104883     -0.790490
  H      -0.131966      0.600262      1.712215
  H      -2.087711      1.973431      1.673847
  H      -4.444936      2.328961      1.078125
  H      -5.569020      0.789916     -0.494676
  H      -4.314839     -1.113258     -1.445976
  H      -1.972513     -1.477018     -0.837250
25
Coordinates from ORCA-job ./output/cinnamyl_acetate/cinnamyl_acetate E -101.994482922529
  C       4.878360      0.006216     -1.367558
  C       4.054212     -0.493642     -0.224969
  O       4.494578     -0.941409      0.798746
  O       2.745618     -0.357073     -0.459047
  C       1.871828     -0.769651      0.597190
  C       0.470586     -0.608276      0.130871
  C      -0.439811      0.076289      0.808400
  C      -1.852358      0.239166      0.442730
  C      -2.572056      1.298813      0.982697
  C      -3.898116      1.503553      0.647625
  C      -4.531202      0.642054     -0.229948
  C      -3.829552     -0.427337     -0.762692
  C      -2.505399     -0.629352     -0.426566
  H       4.387007     -0.181582     -2.316921
  H       5.856364     -0.461609     -1.335308
  H       5.002759      1.081979     -1.255575
  H       2.094137     -1.808682      0.839889
  H       2.074720     -0.172471      1.484600
  H       0.217798     -1.099869     -0.801115
  H      -0.131112      0.590541      1.713083
  H      -2.081063      1.976210      1.669168
  H      -4.438159      2.337077      1.074979
  H      -5.568809      0.796081     -0.491466
  H      -4.321516     -1.114206     -1.437532
  H      -1.978810     -1.482821     -0.829493
25
Coordinates from ORCA-job ./output/cinnamyl_acetate/cinnamyl_acetate E -101.994504289580
  C       4.877988      0.017844     -1.361076
  C       4.054524     -0.493435     -0.223027
  O       4.493164     -0.944863      0.799694
  O       2.745875     -0.361848     -0.461483
  C       1.869995     -0.782457      0.588832
  C       0.468687     -0.614052      0.123642
  C      -0.438831      0.067483      0.807972
  C      -1.851189      0.236252      0.443912
  C      -2.564681      1.303069      0.978011
  C      -3.889849      1.512874      0.642731
  C      -4.528521      0.649209     -0.228741
  C      -3.833342     -0.427521     -0.755067
  C      -2.509956     -0.634494     -0.418902
  H       4.415557     -0.219553     -2.314061
  H       5.876976     -0.399413     -1.297570
  H       4.944419      1.101356     -1.277564
  H       2.087867     -1.824408      0.823472
  H       2.074170     -0.195101      1.482561
  H       0.212828     -1.097548     -0.811694
  H      -0.128906      0.575144      1.715919
  H      -2.069008      1.981990      1.659615
  H      -4.424860      2.352115      1.065209
  H      -5.565531      0.807163     -0.490277
  H      -4.329772     -1.116307     -1.424685
  H      -1.987603     -1.493496     -0.815632
25
Coordinates from ORCA-job ./output/cinnamyl_acetate/cinnamyl_acetate E -101.994534004366
  C       4.875523      0.032549     -1.353823
  C       4.053821     -0.491641     -0.220508
  O       4.491094     -0.950876      0.799144
  O       2.745117     -0.364586     -0.462263
  C       1.867618     -0.799118      0.579991
  C       0.467245     -0.619884      0.117104
  C      -0.437409      0.056861      0.809999
  C      -1.849192      0.232957      0.446494
  C      -2.555324      1.308443      0.972868
  C      -3.879053      1.524486      0.636151
  C      -4.523754      0.658457     -0.228645
  C      -3.836129     -0.427020     -0.746665
  C      -2.513999     -0.640188     -0.409123
  H       4.458467     -0.276204     -2.307699
  H       5.898216     -0.311310     -1.246768
  H       4.860270      1.120531     -1.318176
  H       2.080915     -1.845743      0.798473
  H       2.071925     -0.227803      1.483996
  H       0.208683     -1.090324     -0.824178
  H      -0.126584      0.553257      1.723720
  H      -2.054829      1.989203      1.649097
  H      -4.408341      2.370526      1.052235
  H      -5.559779      0.821320     -0.491092
  H      -4.337516     -1.117920     -1.410406
  H      -1.996984     -1.505971     -0.798139
25
Coordinates from ORCA-job ./output/cinnamyl_acetate/cinnamyl_acetate E -101.994568166797
  C       4.871615      0.044086     -1.349142
  C       4.052540     -0.486503     -0.217141
  O       4.488951     -0.952813      0.799512
  O       2.743736     -0.362972     -0.460788
  C       1.865406     -0.814638      0.573076
  C       0.466899     -0.622116      0.113480
  C      -0.436708      0.045712      0.816480
  C      -1.847263      0.229751      0.451285
  C      -2.547454      1.311596      0.972465
  C      -3.869131      1.534316      0.632375
  C      -4.517599      0.668793     -0.230281
  C      -3.836004     -0.422990     -0.742663
  C      -2.515682     -0.642931     -0.401686
  H       4.523649     -0.365231     -2.293503
  H       5.915364     -0.197789     -1.184671
  H       4.750589      1.124781     -1.394209
  H       2.075310     -1.866559      0.769530
  H       2.069110     -0.262604      1.488949
  H       0.207508     -1.073613     -0.836972
  H      -0.126673      0.524745      1.739538
  H      -2.044140      1.992128      1.646807
  H      -4.394087      2.385203      1.044025
  H      -5.552172      0.837024     -0.495092
  H      -4.340672     -1.113653     -1.404152
  H      -2.003089     -1.513723     -0.785433
25
Coordinates from ORCA-job ./output/cinnamyl_acetate/cinnamyl_acetate E -101.994587932191
  C       4.868714      0.046110     -1.350096
  C       4.051291     -0.480916     -0.215410
  O       4.488619     -0.951114      0.799065
  O       2.742267     -0.357399     -0.457331
  C       1.864957     -0.819488      0.573530
  C       0.467386     -0.621622      0.115872
  C      -0.437193      0.041468      0.822192
  C      -1.846715      0.228801      0.454410
  C      -2.546240      1.310430      0.976925
  C      -3.866739      1.536018      0.634252
  C      -4.514452      0.673716     -0.232266
  C      -3.833451     -0.417696     -0.745995
  C      -2.514157     -0.640600     -0.402409
  H       4.566146     -0.427366     -2.280512
  H       5.919134     -0.134536     -1.153435
  H       4.689009      1.114116     -1.453749
  H       2.076517     -1.873449      0.756964
  H       2.067676     -0.276421      1.494789
  H       0.209004     -1.064127     -0.839213
  H      -0.128161      0.511518      1.750154
  H      -2.043813      1.988689      1.654182
  H      -4.391543      2.386572      1.046782
  H      -5.548167      0.844318     -0.498928
  H      -4.337719     -1.105769     -1.410475
  H      -2.002371     -1.511251     -0.787509
25
Coordinates from ORCA-job ./output/cinnamyl_acetate/cinnamyl_acetate E -101.994601799404
  C       4.867482      0.041129     -1.354091
  C       4.050715     -0.477028     -0.214953
  O       4.489235     -0.948326      0.798596
  O       2.741625     -0.350846     -0.453971
  C       1.865612     -0.816789      0.577644
  C       0.468446     -0.618745      0.120100
  C      -0.438401      0.041479      0.826224
  C      -1.847178      0.229367      0.456043
  C      -2.549512      1.305767      0.985610
  C      -3.869565      1.532022      0.641619
  C      -4.513813      0.675685     -0.233360
  C      -3.829895     -0.410381     -0.754399
  C      -2.511012     -0.634057     -0.409468
  H       4.602965     -0.486588     -2.267210
  H       5.920222     -0.091572     -1.133298
  H       4.645740      1.094288     -1.510360
  H       2.080880     -1.870635      0.756707
  H       2.067938     -0.274393      1.499256
  H       0.212236     -1.058292     -0.837004
  H      -0.130695      0.507648      1.756624
  H      -2.050034      1.979485      1.669526
  H      -4.396844      2.378325      1.059679
  H      -5.547187      0.846888     -0.500965
  H      -4.331510     -1.093688     -1.425747
  H      -1.997450     -1.500740     -0.801014
25
Coordinates from ORCA-job ./output/cinnamyl_acetate/cinnamyl_acetate E -101.994609313561
  C       4.868272      0.033957     -1.357701
  C       4.051054     -0.476314     -0.215301
  O       4.490269     -0.948066      0.797853
  O       2.742143     -0.346014     -0.451844
  C       1.866667     -0.810369      0.581978
  C       0.469283     -0.616259      0.122901
  C      -0.439276      0.044711      0.826095
  C      -1.848012      0.230851      0.455396
  C      -2.554105      1.300715      0.993177
  C      -3.874588      1.525865      0.649984
  C      -4.515462      0.674909     -0.232605
  C      -3.827705     -0.404631     -0.762165
  C      -2.508474     -0.627196     -0.418051
  H       4.622368     -0.521719     -2.259603
  H       5.921150     -0.077233     -1.125750
  H       4.629791      1.078672     -1.541675
  H       2.085328     -1.862723      0.764642
  H       2.068711     -0.263080      1.500741
  H       0.214853     -1.059681     -0.832856
  H      -0.132050      0.513752      1.755275
  H      -2.057326      1.970214      1.683164
  H      -4.404826      2.367019      1.074640
  H      -5.549124      0.845231     -0.499661
  H      -4.326590     -1.083688     -1.439826
  H      -1.992349     -1.488921     -0.817019
25
Coordinates from ORCA-job ./output/cinnamyl_acetate/cinnamyl_acetate E -101.994614019498
  C       4.870324      0.025693     -1.360506
  C       4.052203     -0.477844     -0.215650
  O       4.491343     -0.949657      0.797595
  O       2.743661     -0.342514     -0.450479
  C       1.867750     -0.802265      0.585476
  C       0.470093     -0.613687      0.123838
  C      -0.439642      0.049647      0.823245
  C      -1.848825      0.232905      0.453423
  C      -2.558907      1.295744      0.999801
  C      -3.880360      1.518831      0.658842
  C      -4.518274      0.672761     -0.230441
  C      -3.826465     -0.399839     -0.768953
  C      -2.506439     -0.620304     -0.427035
  H       4.634792     -0.546396     -2.254991
  H       5.922980     -0.073954     -1.122127
  H       4.624291      1.065529     -1.560730
  H       2.088449     -1.852697      0.775891
  H       2.069202     -0.248049      1.500268
  H       0.217214     -1.063896     -0.829063
  H      -0.132598      0.524516      1.749569
  H      -2.064352      1.961339      1.695153
  H      -4.413547      2.354526      1.090521
  H      -5.552600      0.841399     -0.495973
  H      -4.322845     -1.075098     -1.452224
  H      -1.987446     -1.476689     -0.833663
25
Coordinates from ORCA-job ./output/cinnamyl_acetate/cinnamyl_acetate E -101.994616020068
  C       4.871967      0.020379     -1.361658
  C       4.053298     -0.479524     -0.215509
  O       4.492003     -0.951341      0.797929
  O       2.745005     -0.340787     -0.449554
  C       1.868401     -0.797017      0.587093
  C       0.470586     -0.612651      0.123524
  C      -0.439335      0.053649      0.819869
  C      -1.849097      0.234571      0.451381
  C      -2.561620      1.292965      1.003138
  C      -3.883987      1.514285      0.664435
  C      -4.520452      0.670832     -0.228266
  C      -3.826142     -0.397375     -0.772466
  C      -2.505353     -0.616015     -0.432759
  H       4.639030     -0.556590     -2.253679
  H       5.924489     -0.076185     -1.121307
  H       4.624700      1.058958     -1.566754
  H       2.089635     -1.846219      0.783535
  H       2.068687     -0.238398      1.499532
  H       0.218457     -1.068899     -0.826624
  H      -0.132109      0.533891      1.743350
  H      -2.068113      1.956456      1.701247
  H      -4.418876      2.346561      1.100597
  H      -5.555408      0.837990     -0.492262
  H      -4.321214     -1.070589     -1.458706
  H      -1.984552     -1.468946     -0.844296
25
Coordinates from ORCA-job ./output/cinnamyl_acetate/cinnamyl_acetate E -101.994616707943
  C       4.872608      0.017742     -1.362093
  C       4.054001     -0.480466     -0.215131
  O       4.492377     -0.951922      0.798567
  O       2.745732     -0.340240     -0.448894
  C       1.868740     -0.794675      0.587742
  C       0.470949     -0.612379      0.123251
  C      -0.438889      0.055899      0.817825
  C      -1.849023      0.235546      0.450141
  C      -2.562698      1.291789      1.004462
  C      -3.885585      1.512126      0.667068
  C      -4.521469      0.669785     -0.227038
  C      -3.825967     -0.396300     -0.773994
  C      -2.504726     -0.613895     -0.435581
  H       4.639912     -0.560251     -2.253483
  H       5.925158     -0.077623     -1.121390
  H       4.624776      1.055977     -1.568428
  H       2.089826     -1.843421      0.787034
  H       2.067871     -0.234329      1.499409
  H       0.219197     -1.071894     -0.825385
  H      -0.131591      0.539049      1.739735
  H      -2.069622      1.954394      1.703724
  H      -4.421237      2.342767      1.105402
  H      -5.556795      0.836078     -0.490128
  H      -4.320490     -1.068636     -1.461495
  H      -1.983052     -1.465118     -0.849533
25
Coordinates from ORCA-job ./output/cinnamyl_acetate/cinnamyl_acetate E -101.994616875208
  C       4.872837      0.015404     -1.362878
  C       4.054410     -0.480861     -0.214987
  O       4.492662     -0.951286      0.799209
  O       2.746085     -0.340017     -0.448499
  C       1.869097     -0.792793      0.588564
  C       0.471354     -0.611593      0.123695
  C      -0.438692      0.057524      0.817205
  C      -1.849011      0.236240      0.449645
  C      -2.563741      1.290890      1.005637
  C      -3.886905      1.510411      0.668737
  C      -4.521978      0.668885     -0.226675
  C      -3.825388     -0.395574     -0.775451
  C      -2.503928     -0.612389     -0.437478
  H       4.638194     -0.561956     -2.254138
  H       5.925448     -0.081427     -1.123080
  H       4.626375      1.054033     -1.568981
  H       2.090067     -1.841264      0.789622
  H       2.067533     -0.231150      1.499598
  H       0.220024     -1.072666     -0.824301
  H      -0.131590      0.541989      1.738483
  H      -2.071312      1.952900      1.705930
  H      -4.423334      2.339793      1.108488
  H      -5.557486      0.834501     -0.489446
  H      -4.319250     -1.067247     -1.464069
  H      -1.981472     -1.462344     -0.853040
