24
Coordinates from ORCA-job ./output/eugenol/eugenol E -96.265536453084
  C          -2.45600611703964      1.91826526041242      0.41763034392024
  O          -2.64704991706946      0.52835796585542      0.38933058669892
  C          -1.58050480445104     -0.25690375896047      0.13404745491794
  C          -1.82260944452671     -1.63754791513317      0.12866970720950
  C          -0.78392880169254     -2.50350159148455     -0.11936256854655
  C           0.49833908995357     -2.02605540671485     -0.36565811677989
  C           0.74958304612386     -0.67216259244279     -0.36744160119956
  C          -0.30406365593938      0.20492967643442     -0.11184004463587
  C           2.12596669716511     -0.12661464512906     -0.64637524908385
  C           2.61689517634500      0.79105137454656      0.42724725976906
  C           2.98518922256991      2.04745002543422      0.23635620348606
  O          -3.09039740104214     -2.05033894587373      0.37634138870475
  H          -1.74340107196820      2.20485199621780      1.19255691593905
  H          -2.11079789923833      2.29086938558210     -0.54814713212257
  H          -3.42453214878471      2.35332467424584      0.64302904565386
  H          -0.97306962627518     -3.56990962414135     -0.11957046042818
  H           1.29858475905868     -2.72748383613816     -0.55827690665925
  H          -0.10244332790509      1.26544395969720     -0.10067930012971
  H           2.81856550965540     -0.96384713461482     -0.74619925842566
  H           2.13165680817044      0.40014583902048     -1.60251649931910
  H           2.65299527496763      0.37163966344849      1.42812956431012
  H           3.33492972553637      2.66399682080084      1.05367486300227
  H           2.95508326997729      2.50021279847218     -0.74795883958535
  H          -3.12898236359085     -3.00617498953501      0.34495564330375
