! wB97X-3c OPT FREQ TightSCF
%pal
  nprocs 40
end
* xyz 0 1
C      3.069485     1.823152    -0.395194
C      2.305035     0.520019    -0.663525
C      2.835473    -0.682608     0.176591
C      1.614386    -1.588689     0.488703
C      0.537147    -0.974896    -0.384658
C      0.796524     0.525913    -0.338299
C      0.493045     1.225281     1.055793
C     -0.978423     1.476242     1.336165
C     -1.929828     1.072447     0.473983
C     -1.503340     0.266294    -0.737997
C     -0.257783     0.983589    -1.340179
C     -0.992653    -1.169590    -0.310198
C     -1.470104    -2.206625    -1.355437
C     -1.450173    -1.671864     1.083894
C     -3.376644     1.382837     0.735921
H      3.176946     2.020800     0.691942
H      4.089869     1.747766    -0.827059
H      2.546838     2.675676    -0.878299
H      2.436889     0.287002    -1.746067
H      3.292948    -0.342155     1.131269
H      3.600007    -1.243588    -0.403558
H      1.809250    -2.645352     0.202749
H      1.349323    -1.546434     1.565649
H      0.822938    -1.340268    -1.407952
H      0.950638     2.234070     1.065902
H      0.932147     0.665303     1.905188
H     -1.252275     2.025246     2.232766
H     -2.323865     0.225223    -1.488055
H     -0.363152     2.091488    -1.369153
H     -0.046305     0.620183    -2.371654
H     -0.989146    -3.192258    -1.174806
H     -1.218890    -1.880726    -2.388325
H     -2.572667    -2.334112    -1.297649
H     -1.021463    -1.075080     1.912361
H     -2.558130    -1.640882     1.159119
H     -1.120342    -2.721156     1.242536
H     -3.527223     2.482777     0.749173
H     -4.027581     0.944647    -0.049037
H     -3.678902     0.960328     1.717396
*
