39
Coordinates from ORCA-job ./output/alpha_cedrene/alpha_cedrene E -99.946769242700
  C           3.09012838241971      1.79015920131475     -0.44907226229703
  C           2.28948718111570      0.51825625431912     -0.63328555855348
  C           2.79214434600699     -0.66403411810624      0.23837018258609
  C           1.57195492894970     -1.57585020619403      0.52974652615732
  C           0.51531919954677     -0.96122308110403     -0.36658801471467
  C           0.79060482546648      0.54026233586103     -0.31747198717080
  C           0.53089884365475      1.21143199389081      1.04298386856532
  C          -0.90997092572940      1.47910775596747      1.34763601756244
  C          -1.88833965044212      1.06714806186530      0.55667344945930
  C          -1.50465574208917      0.30040344195886     -0.68173259573789
  C          -0.27632856078077      1.00500023515455     -1.29693434515830
  C          -1.01135160629817     -1.15630222177282     -0.34121237658347
  C          -1.43936629392387     -2.10476031991024     -1.45550266934002
  C          -1.52069028778313     -1.71298631398636      0.97967640122580
  C          -3.33490784895474      1.30840943301125      0.82734403347844
  H           3.14909691371867      2.09155457658893      0.59607608535394
  H           4.11282947495918      1.64829729242860     -0.79988618428774
  H           2.65974426796867      2.61645256651846     -1.01601991622661
  H           2.37769151418611      0.22782531198604     -1.68428306255135
  H           3.22188437439806     -0.28593819941263      1.16727900425970
  H           3.59048122739877     -1.20591767469483     -0.26867713128574
  H           1.77223513190902     -2.62035851215222      0.29328266325662
  H           1.29454132212588     -1.53666124174851      1.58273417325414
  H           0.81863051504097     -1.24212414207009     -1.38088551924833
  H           1.05556721029550      2.16916380446970      1.06034871704198
  H           0.97601912551717      0.62834007566770      1.85316921169610
  H          -1.13115780658256      2.03717838794649      2.25134841154179
  H          -2.35063366457384      0.26683820824845     -1.37044336126149
  H          -0.42044549956929      2.08377895947909     -1.35082471366324
  H          -0.05803932640859      0.63494804340351     -2.30066170420008
  H          -0.95863225820254     -3.07816148368728     -1.34517156660271
  H          -1.17009215967641     -1.70980412593776     -2.43576942678433
  H          -2.51887402137760     -2.26217240892990     -1.44293620806128
  H          -1.19212302677644     -1.12765725210934      1.83399866996307
  H          -2.61046948241273     -1.74916698899002      0.99974951665979
  H          -1.15834283100557     -2.73333518644592      1.11055724809817
  H          -3.78898943586035      1.88108550987394      0.01666929055091
  H          -3.88209517103978      0.36659673883034      0.89249503755222
  H          -3.48375418519104      1.85421528846783      1.75721909546541
