! wB97X-3c OPT FREQ TightSCF
%pal
  nprocs 40
end
* xyz 0 1
C     -5.315350    -0.350041    -0.886688
C     -4.110866     0.268103    -0.233119
C     -3.746409    -0.108762     1.003720
C     -2.525672     0.497658     1.644471
C     -1.337024     0.632305     0.649023
C     -1.770211     0.831561    -0.837001
C     -3.239018     1.254697    -0.972549
C     -0.365675    -0.534255     0.784140
C     -0.766886    -1.795480     0.543352
C      1.069046    -0.278832     1.190464
C      1.992642    -0.320878    -0.031636
C      3.426062    -0.048095     0.355293
C      4.437266    -0.020310    -0.538433
C      5.832666     0.261587    -0.044810
C      4.197963    -0.264044    -2.009749
H     -5.178332    -1.449463    -0.962945
H     -5.472958     0.057631    -1.906919
H     -6.220879    -0.136537    -0.280464
H     -4.313547    -0.863052     1.542187
H     -2.808325     1.512034     2.002117
H     -2.237488    -0.091193     2.542489
H     -0.802011     1.562619     0.942933
H     -1.632399    -0.104383    -1.422344
H     -1.124033     1.601145    -1.313031
H     -3.376034     2.266601    -0.533086
H     -3.511952     1.305808    -2.048305
H     -1.787388    -2.012657     0.245453
H     -0.075674    -2.627499     0.638690
H      1.388272    -1.040550     1.936196
H      1.159126     0.714365     1.681454
H      1.928862    -1.323817    -0.506685
H      1.658747     0.446599    -0.763732
H      3.652812     0.134311     1.403897
H      6.570459     0.257065    -0.873911
H      5.863750     1.258932     0.442941
H      6.133351    -0.512661     0.692543
H      5.141134    -0.203388    -2.591417
H      3.767239    -1.275951    -2.161441
H      3.498736     0.498829    -2.411751
*
