39
Coordinates from ORCA-job ./output/beta_bisabolene/beta_bisabolene E -99.900550457738
  C          -5.34228762396452      0.14164847244917      0.02664222309892
  C          -3.90183920979577      0.50114155918311     -0.11291756362483
  C          -3.11067506741300      0.82794587558333      0.90145405166754
  C          -1.68720157841076      1.19119891995788      0.62233509482781
  C          -1.00744824276025      0.17652821245420     -0.32401142167012
  C          -1.95753432361749     -0.29073766570340     -1.43885857573334
  C          -3.27552333133941      0.47880136947316     -1.47678012191205
  C          -0.41189794895864     -0.94065025154224      0.50556585315726
  C          -1.09960499492094     -1.99759027909723      0.91590326287974
  C           1.02447989039353     -0.74948893547838      0.89815554447398
  C           1.98872257241405     -1.06246358733663     -0.24624418841110
  C           3.41628575224941     -0.85140180854684      0.14469563003665
  C           4.19623541621206      0.18269570124536     -0.15596998796651
  C           5.61089593438206      0.25073967957698      0.33132030625952
  C           3.76969108619146      1.35559627072988     -0.98274842757821
  H          -5.52859260494443     -0.86790267286788     -0.34416260587113
  H          -5.96847273260895      0.81494228987667     -0.56122400778995
  H          -5.66783024339290      0.19158737815460      1.06394306489416
  H          -3.48338749862339      0.84966013864321      1.91822274533463
  H          -1.65772331561402      2.17814926239946      0.15072733646039
  H          -1.11381208286423      1.27644113404918      1.54440363270956
  H          -0.17369158347261      0.70461573379261     -0.79023038931520
  H          -2.18827246013822     -1.34532068133942     -1.30538975231833
  H          -1.45620837636204     -0.21307190574052     -2.40437475820768
  H          -3.09814067597733      1.50511914002858     -1.81431618254407
  H          -3.94654515182989      0.02685117570748     -2.20789327942388
  H          -2.13323318521570     -2.15782841744299      0.64223310607898
  H          -0.64506191400438     -2.73790482692326      1.56205936687789
  H           1.26644220621049     -1.38086621090318      1.75400618251496
  H           1.18628294146866      0.28402764785705      1.21627948335949
  H           1.84593077202741     -2.10495824923611     -0.53757978146142
  H           1.73085205206564     -0.46864008948967     -1.12194562026343
  H           3.84268305025586     -1.62935043464424      0.77172919929867
  H           5.76851380812576      1.14119126517338      0.94226485058946
  H           5.87504246967549     -0.62165544199425      0.92501258273012
  H           6.30610346376685      0.31598429065214     -0.50752406707920
  H           4.38431442031162      1.43347507947102     -1.88137722702092
  H           2.72886221942046      1.30989229768802     -1.28852640518401
  H           3.91364809105805      2.28160056413977     -0.42353215387433
