39
Coordinates from ORCA-job ./output/beta_bourbonene/beta_bourbonene E -99.917178057146
  C      -1.949608     -2.375053      0.614334
  C      -2.277255     -0.969625      0.087230
  C      -3.759396     -0.665077      0.360056
  C      -1.351431      0.095055      0.742821
  C      -1.657623      1.536784      0.337786
  C      -0.396564      2.313446      0.689595
  C       0.768761      1.321777      0.521635
  C       0.158884     -0.083044      0.476807
  C       0.609808     -0.218088     -0.995346
  C       1.222858      1.175554     -0.954152
  C       2.728913      1.037366     -1.260502
  C       3.078264     -0.448411     -1.221962
  C       1.764801     -1.144674     -1.180243
  C       1.635044     -2.467590     -1.321056
  C       1.864785      1.483198      1.591125
  H      -0.892980     -2.636782      0.411871
  H      -2.587837     -3.132752      0.111562
  H      -2.122473     -2.431875      1.710629
  H      -2.142494     -0.971238     -1.013675
  H      -4.402381     -1.469432     -0.057312
  H      -3.949821     -0.586058      1.452050
  H      -4.059673      0.284902     -0.129344
  H      -1.491852      0.032372      1.846950
  H      -2.536207      1.940182      0.886669
  H      -1.842347      1.600632     -0.757597
  H      -0.471680      2.652645      1.746640
  H      -0.278877      3.210668      0.044138
  H       0.641255     -0.814442      1.165325
  H      -0.178485     -0.309559     -1.770536
  H       0.712935      1.876926     -1.652696
  H       2.911013      1.419041     -2.289102
  H       3.368993      1.630852     -0.576160
  H       3.663655     -0.694068     -0.310144
  H       3.651107     -0.740499     -2.129182
  H       0.655273     -2.931612     -1.320175
  H       2.509761     -3.095565     -1.458573
  H       2.354590      2.473820      1.484178
  H       2.630131      0.683554      1.510426
  H       1.418154      1.416668      2.605930
39
Coordinates from ORCA-job ./output/beta_bourbonene/beta_bourbonene E -99.929793867913
  C      -1.933554     -2.359392      0.622461
  C      -2.267545     -0.967396      0.097038
  C      -3.740116     -0.656334      0.351420
  C      -1.359494      0.085049      0.734636
  C      -1.645616      1.526566      0.318552
  C      -0.387585      2.301928      0.708190
  C       0.773238      1.320828      0.538408
  C       0.141167     -0.091100      0.478743
  C       0.601377     -0.233262     -0.991688
  C       1.218437      1.180085     -0.939701
  C       2.709349      1.051012     -1.259987
  C       3.056436     -0.445491     -1.207698
  C       1.745234     -1.178839     -1.192704
  C       1.619378     -2.492739     -1.353146
  C       1.866609      1.507164      1.578663
  H      -0.891618     -2.616720      0.432729
  H      -2.556472     -3.112089      0.137046
  H      -2.105804     -2.413637      1.699146
  H      -2.114551     -0.964852     -0.985986
  H      -4.373975     -1.442261     -0.061551
  H      -3.939385     -0.582059      1.422308
  H      -4.032725      0.282013     -0.120038
  H      -1.506519      0.023158      1.820948
  H      -2.525050      1.925703      0.822455
  H      -1.807988      1.585918     -0.762297
  H      -0.467117      2.621290      1.750665
  H      -0.256473      3.198101      0.099504
  H       0.595645     -0.825587      1.142933
  H      -0.183009     -0.350663     -1.737597
  H       0.725720      1.894420     -1.601228
  H       2.885001      1.431378     -2.268275
  H       3.333806      1.643587     -0.592785
  H       3.626358     -0.684060     -0.307584
  H       3.650760     -0.736921     -2.072007
  H       0.645190     -2.962979     -1.357884
  H       2.490500     -3.120054     -1.493438
  H       2.336226      2.487931      1.478422
  H       2.634624      0.738698      1.491458
  H       1.439541      1.431604      2.579871
39
Coordinates from ORCA-job ./output/beta_bourbonene/beta_bourbonene E -99.931846584518
  C      -1.929357     -2.354338      0.635893
  C      -2.270706     -0.968632      0.109200
  C      -3.739111     -0.656886      0.362698
  C      -1.362924      0.087098      0.725200
  C      -1.631527      1.524849      0.282980
  C      -0.385114      2.291816      0.721760
  C       0.778541      1.317472      0.547871
  C       0.134421     -0.093975      0.477768
  C       0.598196     -0.234649     -0.992720
  C       1.215112      1.182060     -0.935261
  C       2.698809      1.053235     -1.268167
  C       3.047326     -0.439947     -1.173203
  C       1.737041     -1.187420     -1.208684
  C       1.614043     -2.492636     -1.402248
  C       1.872418      1.514180      1.572860
  H      -0.890791     -2.613652      0.442659
  H      -2.555546     -3.112127      0.167394
  H      -2.091286     -2.403918      1.713008
  H      -2.115561     -0.968568     -0.972373
  H      -4.374983     -1.441336     -0.044686
  H      -3.938366     -0.584494      1.432292
  H      -4.035890      0.281484     -0.100241
  H      -1.512586      0.042974      1.810184
  H      -2.532181      1.932416      0.736007
  H      -1.751040      1.573354     -0.801612
  H      -0.482357      2.581794      1.768779
  H      -0.239038      3.206843      0.148592
  H       0.577281     -0.840354      1.133406
  H      -0.192887     -0.372114     -1.724816
  H       0.726438      1.911552     -1.578616
  H       2.872232      1.411509     -2.281776
  H       3.320888      1.662723     -0.617283
  H       3.583240     -0.663300     -0.250679
  H       3.688792     -0.748301     -1.995103
  H       0.642058     -2.966847     -1.427327
  H       2.483810     -3.120566     -1.546721
  H       2.327644      2.500303      1.483154
  H       2.655298      0.764833      1.473656
  H       1.457664      1.423564      2.576154
39
Coordinates from ORCA-job ./output/beta_bourbonene/beta_bourbonene E -99.933181301705
  C      -1.919822     -2.351856      0.648210
  C      -2.273940     -0.970985      0.122914
  C      -3.738665     -0.663874      0.386930
  C      -1.362825      0.093952      0.715725
  C      -1.614631      1.525106      0.242309
  C      -0.384977      2.284012      0.728417
  C       0.784279      1.316710      0.553205
  C       0.132618     -0.094038      0.477218
  C       0.593355     -0.230987     -0.994429
  C       1.212838      1.182701     -0.934641
  C       2.691346      1.043266     -1.276693
  C       3.034480     -0.440406     -1.109164
  C       1.726294     -1.189400     -1.225640
  C       1.602830     -2.480659     -1.483225
  C       1.877322      1.525390      1.569609
  H      -0.885172     -2.614512      0.438140
  H      -2.556277     -3.115655      0.203128
  H      -2.058895     -2.397306      1.729743
  H      -2.125683     -0.973344     -0.960691
  H      -4.377931     -1.450959     -0.010831
  H      -3.931090     -0.593642      1.458896
  H      -4.047144      0.274819     -0.067789
  H      -1.512592      0.075872      1.802189
  H      -2.538146      1.944134      0.636654
  H      -1.685593      1.556011     -0.847450
  H      -0.503523      2.538675      1.783037
  H      -0.224693      3.221098      0.193927
  H       0.567973     -0.850815      1.127863
  H      -0.207513     -0.386743     -1.713392
  H       0.730477      1.928057     -1.565478
  H       2.861838      1.354867     -2.306149
  H       3.316574      1.682053     -0.655703
  H       3.501454     -0.637834     -0.143339
  H       3.746132     -0.780333     -1.859649
  H       0.631131     -2.951929     -1.554631
  H       2.469588     -3.110491     -1.638027
  H       2.316447      2.520072      1.489182
  H       2.678928      0.796873      1.462876
  H       1.473208      1.422099      2.576749
39
Coordinates from ORCA-job ./output/beta_bourbonene/beta_bourbonene E -99.934006770029
  C      -1.895190     -2.351287      0.650601
  C      -2.271391     -0.973298      0.134597
  C      -3.733487     -0.679767      0.422604
  C      -1.359891      0.102126      0.710364
  C      -1.607165      1.526287      0.214298
  C      -0.388324      2.286435      0.716110
  C       0.787325      1.323912      0.550293
  C       0.135676     -0.088473      0.476250
  C       0.586839     -0.222422     -0.998097
  C       1.220159      1.182274     -0.936468
  C       2.698042      1.015348     -1.269480
  C       3.016464     -0.460213     -1.032993
  C       1.709790     -1.189009     -1.241402
  C       1.578412     -2.459565     -1.581935
  C       1.872318      1.549252      1.570799
  H      -0.865716     -2.611659      0.410895
  H      -2.542288     -3.119995      0.228372
  H      -2.001421     -2.397566      1.736777
  H      -2.139905     -0.972681     -0.952013
  H      -4.373929     -1.471068      0.033422
  H      -3.910897     -0.616732      1.498478
  H      -4.059936      0.258953     -0.020780
  H      -1.507097      0.105070      1.798179
  H      -2.543007      1.952223      0.572495
  H      -1.653204      1.538554     -0.877881
  H      -0.519091      2.523188      1.774473
  H      -0.221567      3.233306      0.199384
  H       0.570203     -0.848010      1.125711
  H      -0.222336     -0.379819     -1.708545
  H       0.755890      1.939945     -1.567602
  H       2.871746      1.273737     -2.313846
  H       3.331571      1.675875     -0.678102
  H       3.391779     -0.635253     -0.022974
  H       3.791810     -0.834860     -1.700978
  H       0.604217     -2.912721     -1.715960
  H       2.439193     -3.095183     -1.747064
  H       2.295923      2.551770      1.492734
  H       2.690378      0.838193      1.470855
  H       1.468108      1.443132      2.578427
39
Coordinates from ORCA-job ./output/beta_bourbonene/beta_bourbonene E -99.934706072733
  C      -1.853382     -2.352907      0.653071
  C      -2.260993     -0.978907      0.149119
  C      -3.720569     -0.706854      0.471089
  C      -1.353657      0.110766      0.708298
  C      -1.607699      1.525229      0.189582
  C      -0.395820      2.298207      0.682747
  C       0.788596      1.340310      0.541450
  C       0.143237     -0.075833      0.473822
  C       0.579032     -0.206672     -1.005062
  C       1.242322      1.182798     -0.936969
  C       2.722497      0.966909     -1.238230
  C       2.989073     -0.506602     -0.948520
  C       1.683177     -1.188723     -1.262185
  C       1.535867     -2.423959     -1.711378
  C       1.853190      1.591778      1.579773
  H      -0.831402     -2.605630      0.373523
  H      -2.510193     -3.127932      0.256532
  H      -1.917702     -2.399847      1.743123
  H      -2.154518     -0.974293     -0.940681
  H      -4.359757     -1.504078      0.090225
  H      -3.875958     -0.653882      1.551424
  H      -4.069831      0.230798      0.041288
  H      -1.496590      0.132988      1.797167
  H      -2.550174      1.953707      0.528315
  H      -1.645787      1.514759     -0.903861
  H      -0.533764      2.537348      1.740630
  H      -0.228451      3.242915      0.161606
  H       0.582843     -0.833080      1.123412
  H      -0.238650     -0.344861     -1.710303
  H       0.814054      1.952624     -1.580201
  H       2.908927      1.172869     -2.293148
  H       3.370871      1.633319     -0.668226
  H       3.249716     -0.667598      0.099871
  H       3.816218     -0.920036     -1.526242
  H       0.557901     -2.836522     -1.926497
  H       2.385772     -3.070759     -1.889267
  H       2.258680      2.602424      1.497992
  H       2.688190      0.898059      1.503940
  H       1.434735      1.491165      2.582770
39
Coordinates from ORCA-job ./output/beta_bourbonene/beta_bourbonene E -99.935077502905
  C      -1.820926     -2.354787      0.649632
  C      -2.251316     -0.982489      0.157498
  C      -3.709552     -0.727858      0.504433
  C      -1.349382      0.115548      0.711010
  C      -1.614449      1.523674      0.181765
  C      -0.401673      2.310271      0.651417
  C       0.788005      1.353901      0.532058
  C       0.148620     -0.064038      0.471943
  C       0.574251     -0.196320     -1.009720
  C       1.262393      1.183465     -0.936330
  C       2.744775      0.929935     -1.203264
  C       2.970342     -0.548477     -0.901160
  C       1.663444     -1.191118     -1.271240
  C       1.503930     -2.398203     -1.790284
  C       1.835607      1.624856      1.585858
  H      -0.805518     -2.599019      0.339691
  H      -2.482923     -3.132560      0.267020
  H      -1.855746     -2.403743      1.740761
  H      -2.163636     -0.972694     -0.933775
  H      -4.346377     -1.527157      0.123683
  H      -3.848570     -0.686151      1.587275
  H      -4.072639      0.210255      0.086622
  H      -1.490008      0.143722      1.800090
  H      -2.554666      1.950914      0.528018
  H      -1.663854      1.500799     -0.911336
  H      -0.537926      2.569921      1.704767
  H      -0.238653      3.242759      0.108212
  H       0.594779     -0.815782      1.123052
  H      -0.246917     -0.309703     -1.714528
  H       0.864296      1.956476     -1.595262
  H       2.944718      1.112314     -2.260629
  H       3.402180      1.588907     -0.635573
  H       3.162065     -0.706151      0.162978
  H       3.814978     -0.982044     -1.435799
  H       0.523890     -2.774816     -2.055856
  H       2.345570     -3.054169     -1.973714
  H       2.228986      2.639959      1.497661
  H       2.679462      0.939817      1.529955
  H       1.402441      1.529786      2.583070
39
Coordinates from ORCA-job ./output/beta_bourbonene/beta_bourbonene E -99.935206876850
  C      -1.805838     -2.356435      0.649501
  C      -2.245548     -0.984811      0.162481
  C      -3.703397     -0.737527      0.518955
  C      -1.347048      0.116236      0.714500
  C      -1.620570      1.521939      0.183094
  C      -0.404383      2.316812      0.633711
  C       0.787360      1.360452      0.525414
  C       0.150427     -0.057140      0.468469
  C       0.572120     -0.191637     -1.014600
  C       1.273207      1.185228     -0.936912
  C       2.756308      0.913205     -1.182527
  C       2.960076     -0.569588     -0.877959
  C       1.653515     -1.193015     -1.277237
  C       1.489728     -2.385884     -1.827657
  C       1.826877      1.638882      1.586044
  H      -0.794366     -2.596680      0.325060
  H      -2.470286     -3.134503      0.272715
  H      -1.827310     -2.405218      1.740424
  H      -2.165462     -0.972680     -0.928942
  H      -4.338923     -1.535462      0.134252
  H      -3.835979     -0.703513      1.602348
  H      -4.069737      0.202163      0.108268
  H      -1.485708      0.142415      1.803413
  H      -2.555186      1.947238      0.545402
  H      -1.685330      1.496405     -0.908691
  H      -0.535832      2.597958      1.681567
  H      -0.246651      3.237272      0.069813
  H       0.602065     -0.805662      1.118894
  H      -0.250479     -0.288637     -1.719046
  H       0.892200      1.957648     -1.605783
  H       2.967978      1.088043     -2.238891
  H       3.415144      1.565573     -0.610548
  H       3.118026     -0.725223      0.192176
  H       3.811142     -1.009364     -1.394735
  H       0.509326     -2.744271     -2.115433
  H       2.328217     -3.046168     -2.009505
  H       2.216695      2.654556      1.493774
  H       2.672111      0.954804      1.538765
  H       1.385510      1.546587      2.579424
39
Coordinates from ORCA-job ./output/beta_bourbonene/beta_bourbonene E -99.935240165599
  C      -1.801401     -2.357273      0.653087
  C      -2.242539     -0.986509      0.164872
  C      -3.701118     -0.740703      0.519715
  C      -1.345879      0.115760      0.716466
  C      -1.623480      1.521023      0.185455
  C      -0.405338      2.319321      0.627870
  C       0.787104      1.362763      0.523960
  C       0.150559     -0.054129      0.466295
  C       0.571832     -0.189239     -1.017256
  C       1.277544      1.187170     -0.936560
  C       2.760452      0.909282     -1.176270
  C       2.957215     -0.575962     -0.874693
  C       1.649600     -1.193814     -1.281162
  C       1.483553     -2.383445     -1.837487
  C       1.823390      1.641905      1.587345
  H      -0.790182     -2.596400      0.327550
  H      -2.465322     -3.135906      0.277112
  H      -1.822123     -2.404327      1.743868
  H      -2.161583     -0.975153     -0.926371
  H      -4.335302     -1.537940      0.131983
  H      -3.834766     -0.708792      1.602845
  H      -4.066531      0.199589      0.110122
  H      -1.483619      0.139282      1.805242
  H      -2.554456      1.945110      0.558006
  H      -1.697076      1.496514     -0.905336
  H      -0.534291      2.614056      1.671871
  H      -0.250837      3.233051      0.052452
  H       0.605111     -0.802568      1.114744
  H      -0.252153     -0.279238     -1.720742
  H       0.902685      1.959403     -1.608625
  H       2.978823      1.086446     -2.230651
  H       3.418776      1.556942     -0.598883
  H       3.109964     -0.733090      0.195650
  H       3.808415     -1.015254     -1.391100
  H       0.502388     -2.736458     -2.128932
  H       2.321135     -3.044944     -2.018706
  H       2.215355      2.656330      1.493744
  H       2.666498      0.955320      1.543776
  H       1.377597      1.551875      2.578745
39
Coordinates from ORCA-job ./output/beta_bourbonene/beta_bourbonene E -99.935247553487
  C      -1.799157     -2.357714      0.655555
  C      -2.241267     -0.987668      0.166426
  C      -3.700093     -0.742668      0.520183
  C      -1.345237      0.115667      0.716857
  C      -1.624584      1.520673      0.185618
  C      -0.405778      2.320404      0.624925
  C       0.787128      1.363818      0.523665
  C       0.150528     -0.052670      0.464893
  C       0.571860     -0.187224     -1.018862
  C       1.279864      1.188307     -0.936172
  C       2.762373      0.907292     -1.173963
  C       2.955175     -0.578587     -0.872915
  C       1.647249     -1.193748     -1.284193
  C       1.480186     -2.381912     -1.842944
  C       1.821635      1.642968      1.588450
  H      -0.787884     -2.596426      0.329957
  H      -2.462682     -3.137156      0.280627
  H      -1.819579     -2.403690      1.746401
  H      -2.159528     -0.977058     -0.924809
  H      -4.333535     -1.540056      0.131634
  H      -3.834538     -0.711422      1.603259
  H      -4.065605      0.197714      0.110983
  H      -1.482340      0.138786      1.805685
  H      -2.554218      1.944483      0.561911
  H      -1.701736      1.496477     -0.904761
  H      -0.534086      2.622247      1.666839
  H      -0.252666      3.231124      0.044247
  H       0.606743     -0.801648      1.111701
  H      -0.253515     -0.274410     -1.721110
  H       0.908236      1.961532     -1.608847
  H       2.984801      1.086045     -2.227092
  H       3.420662      1.552357     -0.593460
  H       3.105805     -0.736736      0.197461
  H       3.806990     -1.018404     -1.388023
  H       0.498757     -2.732424     -2.136508
  H       2.317304     -3.043945     -2.024216
  H       2.215886      2.656414      1.494481
  H       2.663347      0.954511      1.547166
  H       1.373504      1.554750      2.578951
39
Coordinates from ORCA-job ./output/beta_bourbonene/beta_bourbonene E -99.935248616440
  C      -1.798779     -2.357884      0.656191
  C      -2.241112     -0.988043      0.166755
  C      -3.699928     -0.743211      0.520233
  C      -1.345082      0.115667      0.716728
  C      -1.624917      1.520572      0.185434
  C      -0.406013      2.320630      0.623962
  C       0.787059      1.364064      0.523732
  C       0.150499     -0.052345      0.464467
  C       0.572079     -0.186340     -1.019320
  C       1.280542      1.188669     -0.935926
  C       2.762990      0.907034     -1.173292
  C       2.955128     -0.579047     -0.873788
  C       1.646679     -1.193574     -1.284866
  C       1.479077     -2.381797     -1.843247
  C       1.820973      1.643015      1.589088
  H      -0.787399     -2.596592      0.330845
  H      -2.462170     -3.137668      0.281626
  H      -1.819272     -2.403648      1.747111
  H      -2.159058     -0.977686     -0.924528
  H      -4.333215     -1.540812      0.131754
  H      -3.834662     -0.712020      1.603338
  H      -4.065685      0.197145      0.111095
  H      -1.481944      0.139100      1.805637
  H      -2.554349      1.944364      0.562385
  H      -1.702884      1.496444     -0.904899
  H      -0.534343      2.624783      1.665227
  H      -0.253299      3.230580      0.041843
  H       0.607419     -0.801435      1.110734
  H      -0.253878     -0.272950     -1.721062
  H       0.909742      1.962511     -1.608417
  H       2.986882      1.087598     -2.225786
  H       3.421119      1.550854     -0.591039
  H       3.107151     -0.738554      0.196178
  H       3.806499     -1.018796     -1.389923
  H       0.497477     -2.731855     -2.136834
  H       2.315977     -3.044082     -2.024630
  H       2.216561      2.655968      1.495071
  H       2.662021      0.953600      1.548725
  H       1.372112      1.555738      2.579396
