39
Coordinates from ORCA-job ./output/beta_bourbonene/beta_bourbonene E -99.935248616440
  C          -1.79877867804911     -2.35788350256777      0.65619120954950
  C          -2.24111182726471     -0.98804331086092      0.16675504452710
  C          -3.69992836658035     -0.74321128525676      0.52023335696341
  C          -1.34508154314767      0.11566712090303      0.71672766736750
  C          -1.62491723295071      1.52057205178982      0.18543355258289
  C          -0.40601260470052      2.32063029519634      0.62396227557343
  C           0.78705911788831      1.36406394423465      0.52373216733325
  C           0.15049906187974     -0.05234502161790      0.46446730282045
  C           0.57207875787137     -0.18633995023651     -1.01932015042919
  C           1.28054173039875      1.18866885416166     -0.93592638511993
  C           2.76299040636128      0.90703442385061     -1.17329167373825
  C           2.95512846401330     -0.57904723881275     -0.87378809649645
  C           1.64667874228350     -1.19357374916567     -1.28486634631324
  C           1.47907690373069     -2.38179718876935     -1.84324665253806
  C           1.82097265239732      1.64301488069643      1.58908806292868
  H          -0.78739862455301     -2.59659185711180      0.33084491805954
  H          -2.46216974158516     -3.13766815007556      0.28162635469600
  H          -1.81927157557500     -2.40364803115265      1.74711124817470
  H          -2.15905801148638     -0.97768646312658     -0.92452774259218
  H          -4.33321453559360     -1.54081200355758      0.13175387959626
  H          -3.83466187783631     -0.71202036779479      1.60333836037528
  H          -4.06568529619027      0.19714546993644      0.11109515099714
  H          -1.48194358152925      0.13910001376927      1.80563749851621
  H          -2.55434914444509      1.94436426869466      0.56238510374941
  H          -1.70288355657257      1.49644443621337     -0.90489945521314
  H          -0.53434303509094      2.62478293784497      1.66522656424425
  H          -0.25329897925205      3.23057985930184      0.04184253281348
  H           0.60741932220885     -0.80143529310616      1.11073387481280
  H          -0.25387751213826     -0.27295037052935     -1.72106172283101
  H           0.90974206905637      1.96251138165202     -1.60841711877081
  H           2.98688173583497      1.08759815268327     -2.22578555990039
  H           3.42111881211015      1.55085407115125     -0.59103882222612
  H           3.10715101329242     -0.73855441708396      0.19617827296380
  H           3.80649940907442     -1.01879557806838     -1.38992302457196
  H           0.49747717279921     -2.73185478670580     -2.13683392157299
  H           2.31597665510624     -3.04408168117572     -2.02462981851909
  H           2.21656097341303      2.65596761761445      1.49507110085697
  H           2.66202128563914      0.95360038838838      1.54872507378309
  H           1.37211243918191      1.55573807869352      2.57939591754764
