! wB97X-3c OPT FREQ TightSCF
%pal
  nprocs 40
end
* xyz 0 1
C     -7.559038     1.029241    -0.547666
C     -6.970539     0.490137     0.755628
C     -6.172833    -0.811865     0.563040
C     -4.943811    -0.687181    -0.355577
C     -3.886174     0.284898     0.188043
C     -2.602809     0.224921    -0.653340
C     -1.579251     1.305575    -0.259074
C     -1.013345     1.150991     1.163713
C     -0.346167    -0.180830     1.381638
C      0.795332    -0.505480     0.759312
C      1.444603    -1.844079     0.994226
C      2.756001    -1.997372     0.211369
C      3.872445    -1.102820     0.776883
C      5.234158    -1.342899     0.100786
C      5.272494    -1.063257    -1.414026
C      4.859425     0.360569    -1.835101
C      5.843205     1.456279    -1.384402
C      5.536976     1.975594    -0.012586
O      4.447766     2.569607     0.209922
O      6.466834     1.825469     1.011544
H     -8.246848     1.871201    -0.321417
H     -8.131456     0.236049    -1.073983
H     -6.755663     1.411312    -1.211227
H     -6.340210     1.268985     1.233540
H     -7.809524     0.279606     1.453716
H     -5.841765    -1.175193     1.560379
H     -6.849480    -1.588738     0.144803
H     -4.488622    -1.697920    -0.446090
H     -5.256072    -0.378649    -1.375816
H     -3.654019     0.013697     1.239976
H     -4.285623     1.321067     0.161763
H     -2.143381    -0.783885    -0.570803
H     -2.866344     0.382041    -1.722334
H     -0.740144     1.280088    -0.987741
H     -2.052388     2.307639    -0.348885
H     -1.825922     1.280712     1.908697
H     -0.275116     1.960990     1.350204
H     -0.800429    -0.880889     2.077903
H      1.251059     0.204410     0.073411
H      0.741222    -2.639893     0.665910
H      1.635588    -1.984051     2.080771
H      3.078389    -3.059659     0.272243
H      2.568454    -1.757339    -0.857141
H      3.589574    -0.034333     0.696819
H      3.991839    -1.322418     1.860362
H      5.529792    -2.401896     0.266069
H      6.002845    -0.724596     0.607425
H      4.618366    -1.792970    -1.936373
H      6.303496    -1.260874    -1.780274
H      4.836963     0.372440    -2.946775
H      3.821981     0.588997    -1.510968
H      5.775212     2.310881    -2.091674
H      6.888853     1.081906    -1.425197
H      6.274102     2.173783     1.942986
*
