54
Coordinates from ORCA-job ./output/oleic_acid/oleic_acid E -155.241344856109
  C          -4.17003401907764      2.69374490905766      1.60975421173496
  C          -2.82586057300944      2.05095991710440      1.89896765326685
  C          -2.89840695117806      0.54804612244122      2.13156074480145
  C          -3.44135420687669     -0.26405232324614      0.96346407678389
  C          -2.67188153457012     -0.06138821194652     -0.33086306394354
  C          -2.97409082932192     -1.12378391725571     -1.37276663016949
  C          -2.29252196097552     -0.89369814204800     -2.71670694368550
  C          -0.79290937414146     -0.62651077714839     -2.63835708544527
  C          -0.00720709946361     -1.67860165695665     -1.92610423770152
  C           1.18169810977566     -2.13231723251150     -2.29244597597731
  C           2.01784634817010     -3.06454414841527     -1.47334611054039
  C           3.06773630765238     -2.32024757551996     -0.64725232966703
  C           2.44581384176682     -1.48415008526304      0.45698675165644
  C           3.43540785578392     -0.69942868780697      1.30522586777796
  C           4.26317072905439      0.33597314091847      0.55668460801113
  C           3.47970707025738      1.45569486413107     -0.11552696846745
  C           2.71057116430433      2.34134759965228      0.85510516925173
  C           1.28408992691475      1.93801476738880      1.08174190690072
  O           0.57805741957879      1.38303341415085      0.28462912708444
  O           0.82710463733881      2.32264483328574      2.28164845631577
  H          -4.07836212243807      3.77567817681270      1.52148702593289
  H          -4.88388853510278      2.48391650658072      2.40740958205153
  H          -4.59768032748626      2.32430355913406      0.67841374854708
  H          -2.13967969824800      2.26197817173643      1.07501157561223
  H          -2.40010159511286      2.52135827764410      2.79085056834601
  H          -1.89665366040168      0.17696838023121      2.36801677978287
  H          -3.51009227619094      0.35534793582831      3.01707898829138
  H          -3.40173276561043     -1.32112545056597      1.23925038231356
  H          -4.49948754984665     -0.04052886497994      0.80558440010710
  H          -1.60391938250913     -0.05341460722440     -0.10717851592623
  H          -2.89252253225958      0.92552151450897     -0.74786743911502
  H          -2.68766794411262     -2.10080495738875     -0.97527188493171
  H          -4.05379913934900     -1.17894182183343     -1.53527213841638
  H          -2.47434666771447     -1.75920753519821     -3.35800035165663
  H          -2.76322966504052     -0.04062792270994     -3.21186871157342
  H          -0.62898112020955      0.32213730361851     -2.12070397162776
  H          -0.39356771539139     -0.49584951648099     -3.64552042005384
  H          -0.42492309072677     -2.05139571969597     -0.99517508195421
  H           1.63083417279052     -1.75392939647547     -3.20797974560899
  H           2.51604545858815     -3.78474055298761     -2.12501737730470
  H           1.37572336709417     -3.63949173745115     -0.80228561567042
  H           3.76484170260123     -3.04285983225644     -0.21442518187188
  H           3.65647035406312     -1.68826184971058     -1.31690888576529
  H           1.71437096097824     -0.80464512281820      0.02285267098447
  H           1.88085764990433     -2.14850846767128      1.11707800205704
  H           4.12285326125677     -1.39417387106024      1.79536754929338
  H           2.88894282191301     -0.21059661334572      2.11713555122091
  H           4.87119606697623     -0.16207323900318     -0.20055487913436
  H           4.97450480076704      0.78242435684818      1.25697420444310
  H           4.18668342802634      2.07987697820264     -0.66245652672488
  H           2.78686596134777      1.05650490800655     -0.85695672513057
  H           2.64291350699438      3.35926406970396      0.46420859625261
  H           3.21241730459060      2.42338578498151      1.81824206805439
  H          -0.11182089212409      2.10177334500731      2.32069353118789
