39
Coordinates from ORCA-job ./output/germacrene_d/germacrene_d E -99.896530755800
  C          -1.72607361477830     -2.92217886662371      1.07576973260332
  C          -1.79632559201152     -1.61425821270334      0.34169484996876
  C          -2.56386169602067     -0.63536803295766      0.81797482526300
  C          -2.82927494574012      0.72508443325933      0.25406934090416
  C          -2.16393229714738      1.88211218191706      1.03814390862438
  C          -1.18724444059910      2.64093232548946      0.18452822034632
  C          -1.35945391036124      3.92477049710032     -0.11506842342051
  C          -0.10062270347933      1.85718254829512     -0.41892510952559
  C           0.35610443375730      0.71552167636886      0.07672399631510
  C           1.24369746353104     -0.24225638112173     -0.64284019665198
  C           0.53845366078427     -1.60884034327139     -0.71582176662182
  C          -0.98488098441222     -1.56829725684520     -0.93004733794720
  C           2.63322907881411     -0.35475487204242      0.00084842935462
  C           3.50339735971773     -1.39076797977954     -0.69384627499962
  C           3.34103569114943      0.98996572047687      0.01849033741389
  H          -0.70497053299852     -3.18166628088736      1.35442769104677
  H          -2.32487250227482     -2.90272865821526      1.98356064809218
  H          -2.09468260437013     -3.73284080936479      0.44447058780788
  H          -3.07737833601179     -0.83581056647798      1.75499590171775
  H          -3.90916181708610      0.88192517370935      0.25858089700185
  H          -2.52673721396125      0.77662143347621     -0.78886117631000
  H          -1.65705562927225      1.48591033806215      1.91963603536168
  H          -2.91831129855218      2.57457549087779      1.40843308435457
  H          -0.67305063641078      4.44512701932817     -0.77093213093153
  H          -2.18575254385698      4.49399289850709      0.28958289397908
  H           0.28299032396629      2.21200833388402     -1.37076221097522
  H          -0.01037251646810      0.37220963801040      1.03716966411669
  H           1.38044176201501      0.12966575866335     -1.66447286781102
  H           0.99087579629790     -2.18475882089362     -1.52215434783720
  H           0.75917681769410     -2.15849259535206      0.20153647634148
  H          -1.24728118249203     -0.70105665023045     -1.53252132485305
  H          -1.26581058760958     -2.44499296749618     -1.51871394117541
  H           2.48421748427335     -0.67522976533836      1.03841813309827
  H           3.61628969647353     -1.15131210977279     -1.75331800291751
  H           4.50028846253239     -1.40903893540424     -0.25395796870842
  H           3.09459572099101     -2.39636256010252     -0.61942950548531
  H           4.30997695828456      0.91104285061534      0.51100238211132
  H           2.75678918784815      1.74683329131199      0.53780748923311
  H           3.51554668778421      1.34553005552774     -0.99912793888475
