! wB97X-3c OPT FREQ TightSCF
%pal
  nprocs 40
end
* xyz 0 1
C      3.273395    -0.908318    -0.454928
C      2.351691     0.275425    -0.130580
C      2.125248     0.465890     1.370157
C      0.742821     1.097846     1.505633
C     -0.089776     0.607606     0.299598
C      0.952231     0.286531    -0.801086
C      0.420759    -0.977886    -1.515828
C     -1.001351    -1.182447    -0.955665
C     -0.879152    -0.730095     0.518223
C     -2.250060    -0.547135     1.237612
C     -0.128793    -1.819153     1.337610
C     -2.012821    -0.293696    -1.742131
C     -1.762672     1.236540    -1.608866
C     -1.091662     1.621015    -0.291260
C     -1.504410     2.725633     0.358046
H      2.910310    -1.854448    -0.007569
H      3.363205    -1.029911    -1.555155
H      4.287298    -0.709996    -0.046820
H      2.888708     1.185810    -0.485714
H      2.168321    -0.496566     1.919067
H      2.904531     1.128994     1.806792
H      0.898733     2.196236     1.451756
H      0.267381     0.855105     2.479288
H      0.990176     1.101998    -1.560922
H      0.411480    -0.836669    -2.619055
H      1.025008    -1.882799    -1.315188
H     -1.308591    -2.248793    -1.038811
H     -2.087863    -0.214425     2.285085
H     -2.803814    -1.510387     1.258426
H     -2.918781     0.197933     0.765721
H     -0.718707    -2.761106     1.349670
H      0.008284    -1.503178     2.392915
H      0.857584    -2.077241     0.920705
H     -1.988291    -0.570983    -2.818435
H     -3.043067    -0.529714    -1.400451
H     -1.118942     1.578382    -2.446711
H     -2.738213     1.758058    -1.725259
H     -1.153552     2.983604     1.349227
H     -2.246647     3.382342    -0.085094
*
