39
Coordinates from ORCA-job ./output/gamma_patchoulene/gamma_patchoulene E -99.938813535737
  C       3.273395     -0.908318     -0.454928
  C       2.351691      0.275425     -0.130580
  C       2.125248      0.465890      1.370157
  C       0.742821      1.097846      1.505633
  C      -0.089776      0.607606      0.299598
  C       0.952231      0.286531     -0.801086
  C       0.420759     -0.977886     -1.515828
  C      -1.001351     -1.182447     -0.955665
  C      -0.879152     -0.730095      0.518223
  C      -2.250060     -0.547135      1.237612
  C      -0.128793     -1.819153      1.337610
  C      -2.012821     -0.293696     -1.742131
  C      -1.762672      1.236540     -1.608866
  C      -1.091662      1.621015     -0.291260
  C      -1.504410      2.725633      0.358046
  H       2.910310     -1.854448     -0.007569
  H       3.363205     -1.029911     -1.555155
  H       4.287298     -0.709996     -0.046820
  H       2.888708      1.185810     -0.485714
  H       2.168321     -0.496566      1.919067
  H       2.904531      1.128994      1.806792
  H       0.898733      2.196236      1.451756
  H       0.267381      0.855105      2.479288
  H       0.990176      1.101998     -1.560922
  H       0.411480     -0.836669     -2.619055
  H       1.025008     -1.882799     -1.315188
  H      -1.308591     -2.248793     -1.038811
  H      -2.087863     -0.214425      2.285085
  H      -2.803814     -1.510387      1.258426
  H      -2.918781      0.197933      0.765721
  H      -0.718707     -2.761106      1.349670
  H       0.008284     -1.503178      2.392915
  H       0.857584     -2.077241      0.920705
  H      -1.988291     -0.570983     -2.818435
  H      -3.043067     -0.529714     -1.400451
  H      -1.118942      1.578382     -2.446711
  H      -2.738213      1.758058     -1.725259
  H      -1.153552      2.983604      1.349227
  H      -2.246647      3.382342     -0.085094
39
Coordinates from ORCA-job ./output/gamma_patchoulene/gamma_patchoulene E -99.951346078803
  C       3.242045     -0.907072     -0.444597
  C       2.330919      0.270022     -0.124398
  C       2.081823      0.454897      1.374776
  C       0.704157      1.104487      1.495179
  C      -0.103904      0.611204      0.295822
  C       0.939678      0.283702     -0.802760
  C       0.411928     -0.978027     -1.510536
  C      -1.005998     -1.173782     -0.957472
  C      -0.876282     -0.723679      0.504676
  C      -2.215926     -0.554742      1.225645
  C      -0.097184     -1.779240      1.293614
  C      -2.009579     -0.300848     -1.715139
  C      -1.742500      1.210514     -1.581588
  C      -1.101775      1.603176     -0.268884
  C      -1.477329      2.713547      0.359093
  H       2.870691     -1.840252     -0.020642
  H       3.351723     -1.028681     -1.523177
  H       4.233570     -0.728353     -0.025441
  H       2.858882      1.163061     -0.472189
  H       2.111111     -0.500097      1.901905
  H       2.851727      1.084562      1.824177
  H       0.839140      2.185763      1.436984
  H       0.220802      0.879811      2.446995
  H       0.968669      1.087770     -1.539396
  H       0.404393     -0.850755     -2.594380
  H       1.014343     -1.862458     -1.305767
  H      -1.316953     -2.219102     -1.035086
  H      -2.049059     -0.228242      2.253915
  H      -2.747187     -1.508065      1.254060
  H      -2.876182      0.174371      0.763865
  H      -0.662993     -2.712547      1.310082
  H       0.051571     -1.469631      2.328435
  H       0.874944     -2.006543      0.862171
  H      -1.993114     -0.576525     -2.771928
  H      -3.019296     -0.525386     -1.365567
  H      -1.092374      1.531077     -2.400536
  H      -2.683323      1.743777     -1.713029
  H      -1.076549      2.999082      1.321645
  H      -2.214610      3.373203     -0.080523
39
Coordinates from ORCA-job ./output/gamma_patchoulene/gamma_patchoulene E -99.952690371675
  C       3.251722     -0.874538     -0.460837
  C       2.325195      0.281132     -0.126017
  C       2.074922      0.446716      1.376229
  C       0.699816      1.100660      1.498376
  C      -0.112512      0.607607      0.305281
  C       0.929445      0.279489     -0.799866
  C       0.403049     -0.985866     -1.500449
  C      -1.017640     -1.175185     -0.954712
  C      -0.886072     -0.732791      0.509276
  C      -2.216338     -0.564866      1.231417
  C      -0.108105     -1.789475      1.287083
  C      -2.016254     -0.300378     -1.699496
  C      -1.709020      1.197999     -1.579451
  C      -1.112604      1.594005     -0.252866
  C      -1.470199      2.721330      0.346146
  H       2.888341     -1.820914     -0.064244
  H       3.378273     -0.979506     -1.537476
  H       4.235328     -0.697640     -0.026907
  H       2.831518      1.185158     -0.468906
  H       2.102018     -0.515798      1.882198
  H       2.847666      1.059915      1.839372
  H       0.825850      2.179426      1.434505
  H       0.217796      0.888576      2.452059
  H       0.940248      1.085182     -1.530622
  H       0.399609     -0.870319     -2.583874
  H       1.008536     -1.862797     -1.286726
  H      -1.337260     -2.216309     -1.031887
  H      -2.048589     -0.237703      2.257463
  H      -2.742930     -1.518670      1.267560
  H      -2.874305      0.162359      0.768595
  H      -0.681485     -2.716461      1.301645
  H       0.047967     -1.487529      2.320835
  H       0.858341     -2.017619      0.851664
  H      -2.020590     -0.584229     -2.752422
  H      -3.021331     -0.499812     -1.329053
  H      -1.013912      1.480398     -2.372385
  H      -2.617429      1.769360     -1.760366
  H      -1.053685      3.032652      1.292730
  H      -2.205379      3.376438     -0.103869
39
Coordinates from ORCA-job ./output/gamma_patchoulene/gamma_patchoulene E -99.952998002750
  C       3.248621     -0.872420     -0.461434
  C       2.322816      0.279053     -0.120352
  C       2.061194      0.427070      1.381666
  C       0.699798      1.105599      1.493600
  C      -0.114335      0.614318      0.302251
  C       0.930957      0.282830     -0.802330
  C       0.400645     -0.978752     -1.505545
  C      -1.018682     -1.170906     -0.957811
  C      -0.882223     -0.731800      0.508973
  C      -2.205893     -0.566114      1.242156
  C      -0.092031     -1.783616      1.280806
  C      -2.026717     -0.298844     -1.691074
  C      -1.697051      1.192015     -1.587608
  C      -1.121686      1.596359     -0.254642
  C      -1.490992      2.722451      0.337583
  H       2.872732     -1.826459     -0.093558
  H       3.397583     -0.961564     -1.537173
  H       4.225463     -0.713702     -0.004701
  H       2.826217      1.189426     -0.451844
  H       2.062800     -0.546293      1.868075
  H       2.842826      1.012987      1.865910
  H       0.838010      2.182707      1.418358
  H       0.209706      0.915628      2.448708
  H       0.943589      1.093974     -1.526353
  H       0.396687     -0.864197     -2.589820
  H       1.010818     -1.853054     -1.294167
  H      -1.337556     -2.213218     -1.030884
  H      -2.030940     -0.238732      2.267401
  H      -2.729842     -1.521451      1.287272
  H      -2.867396      0.161486      0.784683
  H      -0.663023     -2.712433      1.298910
  H       0.069835     -1.482386      2.314431
  H       0.874094     -2.005931      0.840742
  H      -2.057947     -0.590558     -2.741939
  H      -3.024156     -0.484731     -1.294018
  H      -0.972858      1.445542     -2.363540
  H      -2.583370      1.787702     -1.803487
  H      -1.082086      3.042322      1.284798
  H      -2.235610      3.365694     -0.114040
39
Coordinates from ORCA-job ./output/gamma_patchoulene/gamma_patchoulene E -99.953060120859
  C       3.261476     -0.857657     -0.466416
  C       2.326410      0.285069     -0.123536
  C       2.069052      0.434222      1.378674
  C       0.705377      1.105258      1.492146
  C      -0.111318      0.609894      0.303313
  C       0.932814      0.279127     -0.802821
  C       0.399892     -0.982531     -1.504143
  C      -1.020321     -1.173387     -0.957948
  C      -0.885581     -0.735673      0.510258
  C      -2.210033     -0.559331      1.241297
  C      -0.111308     -1.798956      1.283696
  C      -2.030170     -0.298754     -1.688352
  C      -1.688856      1.188617     -1.590097
  C      -1.118713      1.592716     -0.253495
  C      -1.493818      2.714698      0.343207
  H       2.891671     -1.816742     -0.104518
  H       3.415327     -0.943912     -1.542179
  H       4.236404     -0.695631     -0.005813
  H       2.818474      1.201494     -0.457122
  H       2.075666     -0.539456      1.863358
  H       2.850370      1.022191      1.861962
  H       0.837614      2.183955      1.410237
  H       0.217471      0.920378      2.450039
  H       0.941115      1.091524     -1.526113
  H       0.397347     -0.870767     -2.589210
  H       1.010079     -1.856813     -1.291042
  H      -1.340225     -2.215955     -1.029708
  H      -2.033844     -0.235801      2.267968
  H      -2.743286     -1.509991      1.285763
  H      -2.863490      0.176465      0.784926
  H      -0.698588     -2.718101      1.301670
  H       0.053467     -1.500676      2.317959
  H       0.851495     -2.038507      0.845597
  H      -2.074237     -0.591931     -2.738756
  H      -3.024569     -0.478622     -1.280310
  H      -0.950358      1.428234     -2.357450
  H      -2.563670      1.796657     -1.820386
  H      -1.089966      3.030821      1.294525
  H      -2.239172      3.357878     -0.107174
39
Coordinates from ORCA-job ./output/gamma_patchoulene/gamma_patchoulene E -99.953090468347
  C       3.256844     -0.865028     -0.459501
  C       2.325400      0.281946     -0.120276
  C       2.064556      0.433388      1.380895
  C       0.703111      1.109176      1.490127
  C      -0.111907      0.612323      0.300613
  C       0.933750      0.280933     -0.803085
  C       0.399567     -0.978852     -1.506910
  C      -1.019617     -1.171680     -0.959525
  C      -0.883002     -0.733986      0.508651
  C      -2.206011     -0.563000      1.245102
  C      -0.102378     -1.795333      1.278862
  C      -2.031545     -0.298333     -1.690204
  C      -1.695379      1.190649     -1.592082
  C      -1.119272      1.594785     -0.257612
  C      -1.493415      2.716192      0.341474
  H       2.881810     -1.822100     -0.097364
  H       3.412774     -0.952810     -1.534920
  H       4.231382     -0.706690      0.003388
  H       2.821819      1.196626     -0.452623
  H       2.065167     -0.540284      1.866732
  H       2.846802      1.018908      1.865595
  H       0.839478      2.187274      1.404672
  H       0.212480      0.928214      2.447369
  H       0.947438      1.093940     -1.525978
  H       0.396439     -0.864653     -2.591748
  H       1.009400     -1.854332     -1.296187
  H      -1.337029     -2.215001     -1.031015
  H      -2.026007     -0.241372      2.271841
  H      -2.736746     -1.515166      1.289557
  H      -2.863827      0.171962      0.793887
  H      -0.686503     -2.716464      1.298811
  H       0.065398     -1.496635      2.312701
  H       0.859803     -2.031922      0.836769
  H      -2.075891     -0.590772     -2.740835
  H      -3.025252     -0.482405     -1.281981
  H      -0.960710      1.433066     -2.362687
  H      -2.573725      1.795206     -1.817178
  H      -1.088012      3.030433      1.292796
  H      -2.237189      3.361800     -0.108127
39
Coordinates from ORCA-job ./output/gamma_patchoulene/gamma_patchoulene E -99.953093659684
  C       3.256268     -0.865939     -0.459981
  C       2.325559      0.281353     -0.120326
  C       2.064165      0.431961      1.380773
  C       0.703658      1.109616      1.489698
  C      -0.111568      0.612594      0.300294
  C       0.934018      0.281634     -0.803336
  C       0.399891     -0.977419     -1.508058
  C      -1.018425     -1.171586     -0.959544
  C      -0.882167     -0.733099      0.508462
  C      -2.205512     -0.561569      1.243946
  C      -0.102058     -1.793571      1.280604
  C      -2.031078     -0.299043     -1.689815
  C      -1.695745      1.190290     -1.592382
  C      -1.119589      1.594156     -0.258050
  C      -1.495371      2.714165      0.342783
  H       2.880113     -1.822879     -0.098802
  H       3.412510     -0.953016     -1.535353
  H       4.230705     -0.709033      0.003439
  H       2.822335      1.196178     -0.451574
  H       2.062443     -0.542237      1.865711
  H       2.847117      1.015664      1.866275
  H       0.841713      2.187191      1.402378
  H       0.212552      0.930454      2.446926
  H       0.948885      1.094947     -1.525934
  H       0.395895     -0.861946     -2.592677
  H       1.010077     -1.853055     -1.298969
  H      -1.334636     -2.215164     -1.030835
  H      -2.025323     -0.240548      2.270794
  H      -2.737004     -1.513214      1.287859
  H      -2.862817      0.174126      0.792946
  H      -0.685173     -2.715274      1.299279
  H       0.062708     -1.494512      2.314774
  H       0.861586     -2.029101      0.841150
  H      -2.076494     -0.591448     -2.740337
  H      -3.024204     -0.484450     -1.280583
  H      -0.960700      1.432393     -2.362850
  H      -2.574316      1.794260     -1.817186
  H      -1.090749      3.027051      1.294730
  H      -2.239269      3.360073     -0.106225
39
Coordinates from ORCA-job ./output/gamma_patchoulene/gamma_patchoulene E -99.953094560472
  C       3.256117     -0.865701     -0.459489
  C       2.325387      0.281529     -0.120094
  C       2.063983      0.432504      1.380958
  C       0.703530      1.110291      1.489584
  C      -0.111834      0.612638      0.300435
  C       0.933726      0.281644     -0.803087
  C       0.399596     -0.977455     -1.507718
  C      -1.018857     -1.171368     -0.959457
  C      -0.882291     -0.733146      0.508547
  C      -2.205365     -0.562362      1.244759
  C      -0.101859     -1.794216      1.279512
  C      -2.031331     -0.298615     -1.689650
  C      -1.694997      1.190504     -1.592998
  C      -1.119637      1.594158     -0.258440
  C      -1.495251      2.714184      0.342490
  H       2.879724     -1.822571     -0.098379
  H       3.412537     -0.952907     -1.534815
  H       4.230485     -0.709000      0.004111
  H       2.821884      1.196480     -0.451389
  H       2.061826     -0.541581      1.865985
  H       2.847044      1.016084      1.866398
  H       0.841781      2.187726      1.400763
  H       0.212340      0.932222      2.446934
  H       0.948859      1.094835     -1.525821
  H       0.395805     -0.862072     -2.592332
  H       1.009545     -1.853250     -1.298449
  H      -1.335078     -2.214913     -1.030876
  H      -2.024408     -0.242140      2.271717
  H      -2.736698     -1.514102      1.288355
  H      -2.863185      0.173489      0.794864
  H      -0.685514     -2.715565      1.298482
  H       0.064141     -1.495574      2.313592
  H       0.861124     -2.030275      0.838869
  H      -2.077590     -0.591215     -2.740081
  H      -3.024297     -0.483662     -1.279849
  H      -0.958844      1.431182     -2.362820
  H      -2.572863      1.795098     -1.818725
  H      -1.090699      3.026637      1.294591
  H      -2.238836      3.360487     -0.106476
