! wB97X-3c OPT FREQ TightSCF
%pal
  nprocs 40
end
* xyz 0 1
C     -2.204014     1.356662     0.645655
C     -2.104920    -0.071730     0.094575
C     -3.502776    -0.681882    -0.057737
C     -1.231068    -0.956809     1.003296
O      0.092018    -0.433492     1.113737
C      1.042749    -0.518871     0.090556
O      0.787342    -1.147620    -0.973893
C      2.370522     0.162693     0.263662
C      2.506065     1.322895    -0.726347
C      3.520060    -0.836757     0.101075
H     -2.650674     1.354790     1.663222
H     -2.835129     1.981659    -0.021624
H     -1.196644     1.821934     0.695783
H     -1.642686    -0.023653    -0.915375
H     -3.429967    -1.701885    -0.491940
H     -4.012572    -0.746705     0.927708
H     -4.120221    -0.060362    -0.740952
H     -1.190035    -1.996807     0.610671
H     -1.677233    -1.000144     2.020190
H      2.422211     0.580558     1.293290
H      3.465197     1.857732    -0.558491
H      1.675071     2.046469    -0.581458
H      2.481301     0.952751    -1.774098
H      3.532843    -1.261930    -0.925760
H      4.492116    -0.333397     0.290618
H      3.410444    -1.666100     0.832420
*
