26
Coordinates from ORCA-job ./output/isobutyl_isobutyrate/isobutyl_isobutyrate E -87.391138449305
  C          -2.14075176358866      1.42093590870786      0.26613997181418
  C          -2.02099656111315     -0.07172924672608      0.01565032358884
  C          -3.38498425880380     -0.73880713416828     -0.02458445550159
  C          -1.17241058141728     -0.74777427730204      1.07315228664635
  O           0.15573399420186     -0.22189730302359      1.12324980121960
  C           1.04068741068036     -0.71383039327930      0.25034790158956
  O           0.77902535715224     -1.58024475722473     -0.53985847592896
  C           2.37680405501841     -0.02443881270885      0.37344914926884
  C           2.27439441717367      1.36834507122941     -0.23823964684519
  C           3.47272169408226     -0.84702533163004     -0.27174526567532
  H          -2.64617046776386      1.61627906644092      1.21386607397606
  H          -2.71876170872236      1.90042675194281     -0.52316562548002
  H          -1.16386564218383      1.89959427560998      0.30471372710145
  H          -1.53045734786966     -0.23327312172265     -0.94666835424616
  H          -3.30335353965838     -1.80187062848619     -0.24965848071553
  H          -3.90049407310276     -0.63458707579597      0.93198530602580
  H          -4.01457368019407     -0.28380863625406     -0.78792869794781
  H          -1.11931304786195     -1.82026309765040      0.89712323542240
  H          -1.58050577789997     -0.56699318502980      2.06680972074699
  H           2.57311358647202      0.08666752139920      1.44119242799200
  H           3.22624357430991      1.88835943497307     -0.14266629527290
  H           1.51065651017484      1.96460555519889      0.25684872043656
  H           2.03182901432540      1.30539124067630     -1.29928380964742
  H           3.28430850812474     -0.97345483479887     -1.33617578315989
  H           4.43402324017554     -0.35128338685499     -0.14610191187091
  H           3.53709708828849     -1.83932460352262      0.17033115646309
