44
Coordinates from ORCA-job ./output/eudesmol/eudesmol E -118.475488160370
  C           1.31063420236489      2.95104723241580     -0.10401086024664
  C           1.81526537166960      1.52852631877597      0.07858511777731
  C           3.10259578733227      1.32806030172937     -0.71108979275776
  C           3.64081478066340     -0.08627257875161     -0.60826794367899
  C           2.57924814561393     -1.08983158740836     -1.01619891988938
  C           1.28049400212202     -0.95963588200651     -0.21644297099053
  C           0.76673922966195      0.48685778946220     -0.32251058034255
  C          -0.54990302300681      0.67855838934293      0.43111666134747
  C          -1.52689522585206     -0.49881876704975      0.30894601516706
  C          -1.17977490647751     -1.30909363816020     -0.93005849637179
  C           0.22107139916513     -1.90450945990022     -0.82849008843032
  C          -2.99724473012219     -0.03380002476471      0.36363811413919
  C          -3.25714109635123      0.76763899406568      1.62603851446069
  C          -3.95840505878112     -1.21352539366034      0.31734677680180
  O          -3.28806413051360      0.85219125632648     -0.71327167999222
  C           1.53846629378861     -1.36187453426895      1.23663161301007
  H           0.98308684086516      3.11713285147105     -1.13231967149965
  H           2.10320570423367      3.66863517356697      0.10959308562946
  H           0.47423198645777      3.18135179641601      0.55259552950729
  H           2.04374403480891      1.39180847487529      1.14086351786493
  H           3.85312025548691      2.04610310677774     -0.37389560422932
  H           2.90542016708790      1.56099455256924     -1.76321274273904
  H           4.52015120927391     -0.19958288824212     -1.24474048592608
  H           3.97849082196514     -0.28171333760861      0.41164763112457
  H           2.95832617679925     -2.11143645297547     -0.92944468089488
  H           2.34730963362629     -0.93597090560868     -2.07441133684703
  H           0.56760669175725      0.65818066786112     -1.38797447085792
  H          -1.04100256081898      1.56781430461487      0.03960715702941
  H          -0.33685159568187      0.87699497666680      1.48376779685919
  H          -1.40084371962688     -1.16203274386086      1.16981874875547
  H          -1.24198006885783     -0.66608480014219     -1.81237473288127
  H          -1.88800726642942     -2.12152562406212     -1.08716461580595
  H           0.17397826450085     -2.81809448208471     -0.23156491506398
  H           0.53993770207721     -2.21567733857686     -1.82488319336149
  H          -2.64478506909835      1.66493848030373      1.65613792614560
  H          -4.30126478094281      1.07333107566430      1.65901013349357
  H          -3.04138244711228      0.16883557418549      2.50981878568988
  H          -3.91699937849509     -1.73266670041521     -0.63886018992678
  H          -3.73058664534590     -1.93582136607937      1.10069198982014
  H          -4.97895080423425     -0.86155238214415      0.45845148285788
  H          -3.24469907818799      0.36839877004439     -1.53850827635768
  H           2.25586641689630     -0.71106774147919      1.73119581918586
  H           0.62702660044288     -1.35039350672437      1.83068171757587
  H           1.93794786727496     -2.37641895116086      1.27351311484857
