44
Coordinates from ORCA-job ./output/eudesmol/eudesmol E -118.460125567700
  C       1.362197      3.001435     -0.105392
  C       1.860581      1.558004      0.083530
  C       3.138702      1.355395     -0.755926
  C       3.677001     -0.072456     -0.646266
  C       2.607194     -1.100633     -1.038215
  C       1.298393     -0.966399     -0.206967
  C       0.778888      0.506451     -0.316235
  C      -0.556930      0.700538      0.450850
  C      -1.558081     -0.490468      0.320259
  C      -1.198805     -1.371683     -0.899115
  C       0.227130     -1.951736     -0.795182
  C      -3.057191     -0.006517      0.337094
  C      -3.348282      0.733964      1.659818
  C      -4.047619     -1.193820      0.248619
  O      -3.303833      0.895447     -0.717359
  C       1.593901     -1.373122      1.267061
  H       0.976185      3.153316     -1.136206
  H       2.188160      3.722378      0.075046
  H       0.559870      3.237691      0.624070
  H       2.119596      1.444902      1.157500
  H       3.929107      2.057092     -0.410172
  H       2.928535      1.581905     -1.825241
  H       4.545912     -0.180977     -1.330852
  H       4.050230     -0.262425      0.381605
  H       3.029957     -2.123193     -0.924600
  H       2.381877     -0.959659     -2.119299
  H       0.553770      0.691204     -1.392766
  H      -1.030027      1.625396      0.058878
  H      -0.345387      0.873780      1.528914
  H      -1.434093     -1.139361      1.214451
  H      -1.281610     -0.776862     -1.834052
  H      -1.893929     -2.230684     -0.987861
  H       0.183520     -2.885050     -0.190399
  H       0.509368     -2.286165     -1.817894
  H      -2.735483      1.654650      1.750771
  H      -4.413351      1.048427      1.705101
  H      -3.137359      0.079232      2.532875
  H      -4.032665     -1.664716     -0.755578
  H      -3.805651     -1.964125      1.012124
  H      -5.089839     -0.846734      0.417169
  H      -3.247441      0.398352     -1.573685
  H       2.311969     -0.693604      1.762978
  H       0.677393     -1.383752      1.886353
  H       2.028138     -2.395419      1.304197
44
Coordinates from ORCA-job ./output/eudesmol/eudesmol E -118.474527428960
  C       1.298844      2.953377     -0.106234
  C       1.818935      1.530296      0.077886
  C       3.093289      1.336358     -0.739759
  C       3.638175     -0.079143     -0.634074
  C       2.577210     -1.097494     -1.022575
  C       1.285001     -0.962681     -0.206663
  C       0.766259      0.484924     -0.315772
  C      -0.547056      0.679358      0.451010
  C      -1.531076     -0.494426      0.324411
  C      -1.183891     -1.344352     -0.892232
  C       0.228903     -1.925904     -0.792693
  C      -2.999283     -0.006983      0.342939
  C      -3.275462      0.743390      1.638682
  C      -3.974445     -1.180661      0.247168
  O      -3.241510      0.905212     -0.708406
  C       1.564193     -1.354118      1.249024
  H       0.923949      3.101369     -1.120981
  H       2.097732      3.674814      0.072383
  H       0.497679      3.177973      0.597800
  H       2.067243      1.410999      1.137576
  H       3.856941      2.041037     -0.400173
  H       2.885649      1.563252     -1.790862
  H       4.499750     -0.187535     -1.298261
  H       3.998555     -0.266227      0.380127
  H       2.980100     -2.108898     -0.914561
  H       2.345731     -0.958598     -2.083582
  H       0.548444      0.659726     -1.377725
  H      -1.023318      1.583711      0.071905
  H      -0.330220      0.852438      1.508501
  H      -1.413984     -1.140651      1.200878
  H      -1.263991     -0.741392     -1.802577
  H      -1.880890     -2.176529     -0.995446
  H       0.189420     -2.840719     -0.195362
  H       0.522517     -2.248512     -1.795178
  H      -2.658913      1.638021      1.717086
  H      -4.317250      1.062064      1.675550
  H      -3.076958      0.105263      2.499123
  H      -3.948916     -1.645830     -0.739590
  H      -3.743792     -1.940049      0.995019
  H      -4.995056     -0.833595      0.408662
  H      -3.189325      0.432783     -1.538881
  H       2.269470     -0.683039      1.736929
  H       0.654520     -1.359083      1.849246
  H       1.986827     -2.359941      1.289683
44
Coordinates from ORCA-job ./output/eudesmol/eudesmol E -118.475266487308
  C       1.294597      2.948571     -0.102590
  C       1.811889      1.527626      0.078872
  C       3.093019      1.334658     -0.721925
  C       3.637779     -0.078782     -0.620158
  C       2.578498     -1.090239     -1.019082
  C       1.284472     -0.962436     -0.213006
  C       0.765555      0.481205     -0.314673
  C      -0.544510      0.667671      0.452247
  C      -1.527178     -0.503490      0.318095
  C      -1.178691     -1.326972     -0.911006
  C       0.229271     -1.912619     -0.815371
  C      -2.994107     -0.021001      0.350301
  C      -3.256503      0.772071      1.617767
  C      -3.966180     -1.192793      0.291396
  O      -3.258480      0.866047     -0.724810
  C       1.550221     -1.362911      1.238679
  H       0.934069      3.102753     -1.120341
  H       2.090574      3.668839      0.084806
  H       0.482655      3.175262      0.584331
  H       2.051699      1.400949      1.138626
  H       3.847431      2.046122     -0.381231
  H       2.890968      1.565990     -1.772053
  H       4.507307     -0.187414     -1.270191
  H       3.985760     -0.270473      0.396039
  H       2.970371     -2.105457     -0.923228
  H       2.345665     -0.942211     -2.076934
  H       0.550876      0.655984     -1.375909
  H      -1.026793      1.568711      0.081208
  H      -0.324516      0.839873      1.507398
  H      -1.410735     -1.161695      1.183233
  H      -1.252216     -0.702955     -1.805484
  H      -1.880513     -2.148421     -1.041380
  H       0.188311     -2.829388     -0.224138
  H       0.534719     -2.223265     -1.815797
  H      -2.633729      1.661478      1.661933
  H      -4.295309      1.094847      1.647794
  H      -3.057017      0.161609      2.496170
  H      -3.942794     -1.687171     -0.678286
  H      -3.732962     -1.931500      1.056273
  H      -4.983167     -0.838845      0.450015
  H      -3.218437      0.378308     -1.547596
  H       2.256882     -0.702129      1.734494
  H       0.637934     -1.365173      1.831243
  H       1.963313     -2.371234      1.274271
44
Coordinates from ORCA-job ./output/eudesmol/eudesmol E -118.475442206899
  C       1.305011      2.950391     -0.117414
  C       1.813934      1.529479      0.069893
  C       3.099559      1.327901     -0.720246
  C       3.639757     -0.085604     -0.613186
  C       2.578132     -1.091730     -1.013942
  C       1.282519     -0.960641     -0.212150
  C       0.766683      0.483636     -0.319385
  C      -0.543786      0.674973      0.443460
  C      -1.525388     -0.498804      0.320244
  C      -1.180215     -1.314164     -0.913964
  C       0.222928     -1.906202     -0.818160
  C      -2.994458     -0.027987      0.365212
  C      -3.265903      0.754488      1.635807
  C      -3.957109     -1.204126      0.288522
  O      -3.268249      0.875360     -0.700497
  C       1.543544     -1.357656      1.241014
  H       0.958801      3.106507     -1.140537
  H       2.101674      3.668563      0.075911
  H       0.482273      3.185524      0.553609
  H       2.047411      1.400983      1.131850
  H       3.850464      2.045513     -0.384539
  H       2.901195      1.556828     -1.772508
  H       4.515951     -0.200851     -1.252695
  H       3.979157     -0.276108      0.406630
  H       2.959549     -2.111645     -0.923072
  H       2.343286     -0.941601     -2.071501
  H       0.557848      0.651793     -1.383223
  H      -1.031498      1.569104      0.061697
  H      -0.323048      0.864882      1.495595
  H      -1.404203     -1.160194      1.182531
  H      -1.248327     -0.679373     -1.801055
  H      -1.888825     -2.128116     -1.059152
  H       0.179732     -2.820524     -0.222698
  H       0.535385     -2.217225     -1.816147
  H      -2.647688      1.645786      1.689816
  H      -4.307359      1.068604      1.660833
  H      -3.067404      0.138376      2.511242
  H      -3.914429     -1.697485     -0.680861
  H      -3.731194     -1.945979      1.053132
  H      -4.977584     -0.855124      0.434880
  H      -3.224247      0.404287     -1.532655
  H       2.254841     -0.700379      1.735120
  H       0.631242     -1.352583      1.832999
  H       1.950034     -2.368875      1.279591
44
Coordinates from ORCA-job ./output/eudesmol/eudesmol E -118.475475325720
  C       1.305476      2.949948     -0.105312
  C       1.812714      1.528381      0.076894
  C       3.100802      1.329787     -0.711349
  C       3.641219     -0.083775     -0.609318
  C       2.580640     -1.088173     -1.017043
  C       1.282802     -0.961283     -0.216148
  C       0.766002      0.484106     -0.320142
  C      -0.547820      0.672630      0.438385
  C      -1.527151     -0.502877      0.312386
  C      -1.178861     -1.314079     -0.925541
  C       0.223603     -1.906293     -0.827715
  C      -2.996421     -0.033051      0.362724
  C      -3.255532      0.772145      1.622109
  C      -3.962343     -1.208460      0.313929
  O      -3.280836      0.853948     -0.716032
  C       1.542969     -1.363358      1.236653
  H       0.968795      3.113188     -1.131226
  H       2.100254      3.667853      0.098905
  H       0.474925      3.182127      0.558041
  H       2.042781      1.393017      1.139432
  H       3.849787      2.049053     -0.373414
  H       2.903929      1.563024     -1.763705
  H       4.520723     -0.196326     -1.245513
  H       3.978014     -0.278826      0.411091
  H       2.960538     -2.109734     -0.932504
  H       2.346383     -0.932758     -2.074628
  H       0.562682      0.655182     -1.385080
  H      -1.038655      1.565356      0.054439
  H      -0.330395      0.865275      1.491333
  H      -1.405909     -1.166432      1.173759
  H      -1.244439     -0.673613     -1.809496
  H      -1.886502     -2.127510     -1.079428
  H       0.179927     -2.821409     -0.232551
  H       0.541117     -2.215050     -1.825302
  H      -2.633471      1.662735      1.655441
  H      -4.296531      1.088869      1.648794
  H      -3.051728      0.171071      2.507399
  H      -3.926881     -1.721414     -0.645766
  H      -3.733747     -1.937087      1.091303
  H      -4.981031     -0.853545      0.461278
  H      -3.243119      0.370328     -1.541509
  H       2.255665     -0.708348      1.732616
  H       0.630822     -1.359092      1.829570
  H       1.948801     -2.375529      1.272239
44
Coordinates from ORCA-job ./output/eudesmol/eudesmol E -118.475484413228
  C       1.308262      2.950870     -0.106796
  C       1.814238      1.528914      0.076623
  C       3.101816      1.328824     -0.712566
  C       3.641104     -0.085098     -0.609135
  C       2.580029     -1.089442     -1.016241
  C       1.281721     -0.960432     -0.215757
  C       0.766404      0.485624     -0.321326
  C      -0.548260      0.676046      0.435629
  C      -1.526746     -0.500236      0.311927
  C      -1.179455     -1.312218     -0.925923
  C       0.222432     -1.905647     -0.826984
  C      -2.996619     -0.032683      0.363718
  C      -3.257923      0.767453      1.626481
  C      -3.959983     -1.210225      0.311911
  O      -3.282824      0.856210     -0.712515
  C       1.540443     -1.362312      1.237408
  H       0.974317      3.114326     -1.133535
  H       2.102574      3.668629      0.099801
  H       0.476063      3.183097      0.554495
  H       2.043935      1.393883      1.139078
  H       3.851671      2.047624     -0.375471
  H       2.904799      1.561154     -1.765001
  H       4.520464     -0.198487     -1.245504
  H       3.978315     -0.279586      0.411193
  H       2.959641     -2.110945     -0.930021
  H       2.346870     -0.935432     -2.074252
  H       0.564363      0.656243     -1.386499
  H      -1.038997      1.567411      0.048514
  H      -0.332116      0.871268      1.488333
  H      -1.403368     -1.163168      1.173520
  H      -1.244378     -0.671609     -1.809864
  H      -1.887417     -2.125525     -1.079772
  H       0.177761     -2.820171     -0.231098
  H       0.540028     -2.215391     -1.824266
  H      -2.639984      1.660740      1.662031
  H      -4.300301      1.079551      1.655168
  H      -3.050455      0.164824      2.509769
  H      -3.921212     -1.722694     -0.648070
  H      -3.731697     -1.938557      1.089573
  H      -4.979788     -0.857634      0.457102
  H      -3.242477      0.374159     -1.538962
  H       2.254219     -0.708415      1.733173
  H       0.628096     -1.355785      1.830231
  H       1.944436     -2.375158      1.273881
44
Coordinates from ORCA-job ./output/eudesmol/eudesmol E -118.475487259243
  C       1.309842      2.950947     -0.105319
  C       1.814987      1.528643      0.077727
  C       3.102262      1.328216     -0.712054
  C       3.640757     -0.085983     -0.608860
  C       2.579309     -1.089779     -1.016415
  C       1.280979     -0.959908     -0.215990
  C       0.766595      0.486412     -0.322100
  C      -0.549261      0.677824      0.432877
  C      -1.526885     -0.499090      0.310476
  C      -1.179815     -1.310746     -0.927655
  C       0.221513     -1.905265     -0.827124
  C      -2.997009     -0.033056      0.363668
  C      -3.258094      0.766685      1.626885
  C      -3.959069     -1.211867      0.313759
  O      -3.285438      0.854969     -0.712331
  C       1.540004     -1.361542      1.237116
  H       0.979583      3.115890     -1.132967
  H       2.103137      3.668633      0.105300
  H       0.475207      3.182095      0.553260
  H       2.044083      1.392656      1.140023
  H       3.852628      2.046521     -0.375053
  H       2.905065      1.560810     -1.764285
  H       4.520088     -0.199422     -1.245306
  H       3.978259     -0.281023      0.411230
  H       2.958575     -2.111346     -0.929974
  H       2.346733     -0.935808     -2.074491
  H       0.566362      0.657289     -1.387457
  H      -1.040183      1.567868      0.042936
  H      -0.334903      0.875191      1.485482
  H      -1.402044     -1.161817      1.171922
  H      -1.243403     -0.669186     -1.810956
  H      -1.887889     -2.123706     -1.082838
  H       0.175664     -2.819057     -0.230372
  H       0.539654     -2.216133     -1.823856
  H      -2.643376      1.662248      1.660449
  H      -4.301498      1.075069      1.657755
  H      -3.046285      0.165493      2.510027
  H      -3.918383     -1.727394     -0.644476
  H      -3.731333     -1.937359      1.094184
  H      -4.979380     -0.859825      0.456475
  H      -3.243186      0.372385     -1.538331
  H       2.255833     -0.708970      1.731718
  H       0.628457     -1.352392      1.831020
  H       1.941853     -2.375170      1.273925
44
Coordinates from ORCA-job ./output/eudesmol/eudesmol E -118.475488160370
  C       1.310634      2.951047     -0.104011
  C       1.815265      1.528526      0.078585
  C       3.102596      1.328060     -0.711090
  C       3.640815     -0.086273     -0.608268
  C       2.579248     -1.089832     -1.016199
  C       1.280494     -0.959636     -0.216443
  C       0.766739      0.486858     -0.322511
  C      -0.549903      0.678558      0.431117
  C      -1.526895     -0.498819      0.308946
  C      -1.179775     -1.309094     -0.930058
  C       0.221071     -1.904509     -0.828490
  C      -2.997245     -0.033800      0.363638
  C      -3.257141      0.767639      1.626039
  C      -3.958405     -1.213525      0.317347
  O      -3.288064      0.852191     -0.713272
  C       1.538466     -1.361875      1.236632
  H       0.983087      3.117133     -1.132320
  H       2.103206      3.668635      0.109593
  H       0.474232      3.181352      0.552596
  H       2.043744      1.391808      1.140864
  H       3.853120      2.046103     -0.373896
  H       2.905420      1.560995     -1.763213
  H       4.520151     -0.199583     -1.244740
  H       3.978491     -0.281713      0.411648
  H       2.958326     -2.111436     -0.929445
  H       2.347310     -0.935971     -2.074411
  H       0.567607      0.658181     -1.387974
  H      -1.041003      1.567814      0.039607
  H      -0.336852      0.876995      1.483768
  H      -1.400844     -1.162033      1.169819
  H      -1.241980     -0.666085     -1.812375
  H      -1.888007     -2.121526     -1.087165
  H       0.173978     -2.818094     -0.231565
  H       0.539938     -2.215677     -1.824883
  H      -2.644785      1.664938      1.656138
  H      -4.301265      1.073331      1.659010
  H      -3.041382      0.168836      2.509819
  H      -3.916999     -1.732667     -0.638860
  H      -3.730587     -1.935821      1.100692
  H      -4.978951     -0.861552      0.458451
  H      -3.244699      0.368399     -1.538508
  H       2.255866     -0.711068      1.731196
  H       0.627027     -1.350394      1.830682
  H       1.937948     -2.376419      1.273513
