! wB97X-3c OPT FREQ TightSCF
%pal
  nprocs 40
end
* xyz 0 1
C      1.362197     3.001435    -0.105392
C      1.860581     1.558004     0.083530
C      3.138702     1.355395    -0.755926
C      3.677001    -0.072456    -0.646266
C      2.607194    -1.100633    -1.038215
C      1.298393    -0.966399    -0.206967
C      0.778888     0.506451    -0.316235
C     -0.556930     0.700538     0.450850
C     -1.558081    -0.490468     0.320259
C     -1.198805    -1.371683    -0.899115
C      0.227130    -1.951736    -0.795182
C     -3.057191    -0.006517     0.337094
C     -3.348282     0.733964     1.659818
C     -4.047619    -1.193820     0.248619
O     -3.303833     0.895447    -0.717359
C      1.593901    -1.373122     1.267061
H      0.976185     3.153316    -1.136206
H      2.188160     3.722378     0.075046
H      0.559870     3.237691     0.624070
H      2.119596     1.444902     1.157500
H      3.929107     2.057092    -0.410172
H      2.928535     1.581905    -1.825241
H      4.545912    -0.180977    -1.330852
H      4.050230    -0.262425     0.381605
H      3.029957    -2.123193    -0.924600
H      2.381877    -0.959659    -2.119299
H      0.553770     0.691204    -1.392766
H     -1.030027     1.625396     0.058878
H     -0.345387     0.873780     1.528914
H     -1.434093    -1.139361     1.214451
H     -1.281610    -0.776862    -1.834052
H     -1.893929    -2.230684    -0.987861
H      0.183520    -2.885050    -0.190399
H      0.509368    -2.286165    -1.817894
H     -2.735483     1.654650     1.750771
H     -4.413351     1.048427     1.705101
H     -3.137359     0.079232     2.532875
H     -4.032665    -1.664716    -0.755578
H     -3.805651    -1.964125     1.012124
H     -5.089839    -0.846734     0.417169
H     -3.247441     0.398352    -1.573685
H      2.311969    -0.693604     1.762978
H      0.677393    -1.383752     1.886353
H      2.028138    -2.395419     1.304197
*
